data_GaAs_216_conv
_chemical_formula_sum Ga4As
_cell_length_a                    8.132
_cell_length_b                    8.132
_cell_length_c                    8.132
_cell_angle_alpha                 90.00
_cell_angle_beta                  90.00
_cell_angle_gamma                 90.00

loop_
_symmetry_equiv_pos_as_xyz
   'x, y, z'
   'y + 2, z -1, x + 1'

loop_
_atom_site_label
_atom_site_fract_x
_atom_site_fract_y
_atom_site_fract_z
_atom_site_occupancy
Ga .0(34) .0 .0 0.5
Ga 0.0 1.5 0.5 0.5
Ga 0.5 0.0 0.5 1.0
Ga 0.5 0.5 0.0 0.5
As .75 0.75 0.75 0.2
As 0.25 0.25 0.75 0.4
As 0.25 0.75 0.25 0.2
As 0.75 0.25 0.25 0.1
