####################################################################### 
# 
# This file contains crystal structure data downloaded from the 
# Cambridge Structural Database (CSD) hosted by the Cambridge 
# Crystallographic Data Centre (CCDC).
# 
# Full information about CCDC data access policies and citation 
# guidelines are available at http://www.ccdc.cam.ac.uk/access/V1 
# 
# Audit and citation data items may have been added by the CCDC. 
# Please retain this information to preserve the provenance of 
# this file and to allow appropriate attribution of the data. 
# 
#######################################################################

data_IT026_DOUBLE_CL2_publ
_audit_block_doi                 10.5517/ccdc.csd.cc20fyr5
_database_code_depnum_ccdc_archive 'CCDC 1860457'
loop_
_citation_id
_citation_doi
_citation_year
1 10.1021/acs.jpcc.8b08706 2018
loop_
_audit_author_name
_audit_author_address
'Jean-Louis Paillaud'
;University of Haute Alsace
France
;
_audit_update_record             
;
2018-08-03 deposited with the CCDC.	2021-10-12 downloaded from the CCDC.
;

_pd_block_id                     
2018-05-22T17:22|IT026_DOUBLE_CL2|Paillaud|stoe

_audit_creation_method           'from EXP file using GSAS2CIF'
_audit_creation_date             2018-05-22T17:22

#=============================================================================
# 5. OVERALL REFINEMENT & COMPUTING DETAILS

_refine_special_details          'Rietveld method'
_pd_proc_ls_special_details      
; ?
;

# The following items are used to identify the programs used.
_computing_molecular_graphics    ?
_computing_publication_material  ?

_refine_ls_weighting_scheme      ?
_refine_ls_weighting_details     ?
_refine_ls_hydrogen_treatment    ?
_refine_ls_extinction_method     ?
_refine_ls_extinction_coef       ?
_refine_ls_number_constraints    ?

_refine_ls_restrained_S_all      ?
_refine_ls_restrained_S_obs      ?

#==============================================================================
# 6. SAMPLE PREPARATION DATA

# (In the unusual case where multiple samples are used in a single
#  Rietveld study, this information should be moved into the phase
#  blocks)

# The following three fields describe the preparation of the material.
# The cooling rate is in K/min.  The pressure at which the sample was
# prepared is in kPa.  The temperature of preparation is in K.

_pd_prep_cool_rate               ?
_pd_prep_pressure                ?
_pd_prep_temperature             ?

_pd_char_colour                  ? # use ICDD colour descriptions
_refine_ls_shift/su_max          0.07
_refine_ls_shift/su_mean         0.01
_computing_structure_refinement  GSAS
_refine_ls_number_parameters     26
_refine_ls_goodness_of_fit_all   1.84
_refine_ls_number_restraints     18
_refine_ls_matrix_type           full
#==============================================================================
# 7. CHEMICAL, STRUCTURAL AND CRYSTAL DATA

_pd_char_particle_morphology     ?

_chemical_name_systematic        ZIF-8_Cl
_chemical_name_common            'ZIF-8, 2-chloroimidazolium'
_chemical_formula_moiety         ?
_chemical_formula_structural     ?
_chemical_formula_analytical     ?
_chemical_melting_point          ?
_chemical_compound_source        ? # for minerals and
# natural products
_symmetry_space_group_name_Hall  ?

_exptl_crystal_F_000             ?
_exptl_crystal_density_diffrn    ?
_exptl_crystal_density_meas      ?
_exptl_crystal_density_method    ?

_cell_measurement_temperature    ?

_cell_special_details            
; ?
;

_geom_special_details            ?

# The following item identifies the program(s) used (if appropriate).
_computing_structure_solution    ?

#==============================================================================

# 8. Phase information from GSAS

_pd_phase_name                   'ZIF-8, 2-chloroimidazolium'
_cell_length_a                   17.03715(6)
_cell_length_b                   17.03715
_cell_length_c                   17.03715
_cell_angle_alpha                90.0
_cell_angle_beta                 90.0
_cell_angle_gamma                90.0
_cell_volume                     4945.28(5)
_symmetry_cell_setting           cubic
_symmetry_space_group_name_H-M   'I -4 3 m'
loop_
_symmetry_equiv_pos_site_id
_symmetry_equiv_pos_as_xyz
1 +x,+y,+z
2 +z,+x,+y
3 +y,+z,+x
4 +y,-x,-z
5 -z,+y,-x
6 -x,-z,+y
7 -x,-y,+z
8 -z,+x,-y
9 -y,-z,+x
10 +x,-y,-z
11 +z,-x,-y
12 -y,+z,-x
13 -y,+x,-z
14 -z,-y,+x
15 +x,-z,-y
16 +x,+z,+y
17 +y,+x,+z
18 +z,+y,+x
19 +y,-z,-x
20 -y,-x,+z
21 +z,-y,-x
22 -x,+z,-y
23 -x,+y,-z
24 -z,-x,+y
101 +x+1/2,+y+1/2,+z+1/2
102 +z+1/2,+x+1/2,+y+1/2
103 +y+1/2,+z+1/2,+x+1/2
104 +y+1/2,-x+1/2,-z+1/2
105 -z+1/2,+y+1/2,-x+1/2
106 -x+1/2,-z+1/2,+y+1/2
107 -x+1/2,-y+1/2,+z+1/2
108 -z+1/2,+x+1/2,-y+1/2
109 -y+1/2,-z+1/2,+x+1/2
110 +x+1/2,-y+1/2,-z+1/2
111 +z+1/2,-x+1/2,-y+1/2
112 -y+1/2,+z+1/2,-x+1/2
113 -y+1/2,+x+1/2,-z+1/2
114 -z+1/2,-y+1/2,+x+1/2
115 +x+1/2,-z+1/2,-y+1/2
116 +x+1/2,+z+1/2,+y+1/2
117 +y+1/2,+x+1/2,+z+1/2
118 +z+1/2,+y+1/2,+x+1/2
119 +y+1/2,-z+1/2,-x+1/2
120 -y+1/2,-x+1/2,+z+1/2
121 +z+1/2,-y+1/2,-x+1/2
122 -x+1/2,+z+1/2,-y+1/2
123 -x+1/2,+y+1/2,-z+1/2
124 -z+1/2,-x+1/2,+y+1/2

# ATOMIC COORDINATES AND DISPLACEMENT PARAMETERS


loop_
_atom_site_type_symbol
_atom_site_label
_atom_site_fract_x
_atom_site_fract_y
_atom_site_fract_z
_atom_site_occupancy
_atom_site_thermal_displace_type
_atom_site_U_iso_or_equiv
_atom_site_symmetry_multiplicity
Zn Zn1 0.25 0.5 0.0 1.0 Uiso 0.0451(4) 12
C C1 0.12409(23) 0.4907(5) 0.12409(23) 0.498(5) Uiso 0.0447(7) 24
C C2 0.18510(30) 0.59922(29) 0.13030(26) 0.498(5) Uiso 0.0447(7) 48
Cl Cl 0.09667(20) 0.40019(34) 0.09667(20) 0.498(5) Uiso 0.0447(7) 24
N N1 0.18592(18) 0.52934(21) 0.08959(18) 1.0 Uiso 0.0447(7) 48
H H1 0.2205(7) 0.6400(8) 0.1213(7) 0.498(5) Uiso 0.0447(7) 48
Cl Cl' 0.07672(21) 0.42006(33) 0.07671(21) 0.502(5) Uiso 0.0447(7) 24
C C1' 0.12069(26) 0.4947(4) 0.12069(26) 0.502(5) Uiso 0.0447(7) 24
C C2' 0.19917(31) 0.58643(29) 0.14474(25) 0.502(5) Uiso 0.0447(7) 48
H H1' 0.2408(7) 0.6218(6) 0.1419(9) 0.502(5) Uiso 0.0447(7) 48

# If you change Z, be sure to change all 3 of the following
_chemical_formula_sum            'C6.00 H4.00 Cl2.00 N4 Zn'
_chemical_formula_weight         268.41
_cell_formula_units_Z            12

# MOLECULAR GEOMETRY

loop_
_geom_bond_atom_site_label_1
_geom_bond_atom_site_label_2
_geom_bond_distance
_geom_bond_site_symmetry_1
_geom_bond_site_symmetry_2
_geom_bond_publ_flag
Zn1 N1 1.9421(29) . 1_555 N
Zn1 N1 1.9421(29) . 10_565 N
Zn1 N1 1.9421(29) . 106_554 N
Zn1 N1 1.9421(29) . 122_555 N
C1 C2 2.124(9) . 1_555 N
C1 C2 2.124(9) . 18_555 N
C1 Cl 1.678(9) . 1_555 N
C1 N1 1.374(4) . 1_555 N
C1 N1 1.374(4) . 18_555 N
C1 Cl' 1.659(10) . 1_555 N
C1 C1' 0.106(8) . 1_555 N
C1 C2' 2.102(9) . 1_555 N
C1 C2' 2.102(9) . 18_555 N
C2 C1 2.124(9) . 1_555 N
C2 C2 1.321(10) . 18_555 N
C2 N1 1.378(5) . 1_555 N
C2 H1 0.933(12) . 1_555 N
C2 H1 2.007(15) . 18_555 N
C2 C1' 2.099(9) . 1_555 N
C2 C2' 0.407(7) . 1_555 N
C2 C2' 1.377(6) . 18_555 N
C2 H1' 1.043(13) . 1_555 N
C2 H1' 2.058(14) . 18_555 N
Cl C1 1.678(9) . 1_555 N
Cl N1 2.677(6) . 1_555 N
Cl N1 2.677(6) . 18_555 N
Cl Cl' 0.588(6) . 1_555 N
Cl C1' 1.711(10) . 1_555 N
N1 Zn1 1.9421(29) . 1_555 N
N1 C1 1.374(4) . 1_555 N
N1 C2 1.378(5) . 1_555 N
N1 Cl 2.677(6) . 1_555 N
N1 H1 2.048(14) . 1_555 N
N1 Cl' 2.641(6) . 1_555 N
N1 C1' 1.365(4) . 1_555 N
N1 C2' 1.371(5) . 1_555 N
N1 H1' 2.038(14) . 1_555 N
H1 C2 0.933(12) . 1_555 N
H1 C2 2.007(15) . 18_555 N
H1 N1 2.048(14) . 1_555 N
H1 C2' 1.060(14) . 1_555 N
H1 C2' 2.064(14) . 18_555 N
H1 H1' 0.582(10) . 1_555 N
Cl' C1 1.659(10) . 1_555 N
Cl' Cl 0.588(6) . 1_555 N
Cl' N1 2.641(6) . 1_555 N
Cl' N1 2.641(6) . 18_555 N
Cl' C1' 1.655(8) . 1_555 N
C1' C1 0.106(8) . 1_555 N
C1' C2 2.099(9) . 1_555 N
C1' C2 2.099(9) . 18_555 N
C1' Cl 1.711(10) . 1_555 N
C1' N1 1.365(4) . 1_555 N
C1' N1 1.365(4) . 18_555 N
C1' Cl' 1.655(8) . 1_555 N
C1' C2' 2.097(9) . 1_555 N
C1' C2' 2.097(9) . 18_555 N
C2' C1 2.102(9) . 1_555 N
C2' C2 0.407(7) . 1_555 N
C2' C2 1.377(6) . 18_555 N
C2' N1 1.371(5) . 1_555 N
C2' H1 1.060(14) . 1_555 N
C2' H1 2.064(14) . 18_555 N
C2' C1' 2.097(9) . 1_555 N
C2' C2' 1.311(10) . 18_555 N
C2' H1' 0.933(12) . 1_555 N
C2' H1' 1.999(16) . 18_555 N
H1' C2 1.043(13) . 1_555 N
H1' C2 2.058(14) . 18_555 N
H1' N1 2.038(14) . 1_555 N
H1' H1 0.582(10) . 1_555 N
H1' C2' 0.933(12) . 1_555 N
H1' C2' 1.999(16) . 18_555 N

loop_
_geom_angle_atom_site_label_1
_geom_angle_atom_site_label_2
_geom_angle_atom_site_label_3
_geom_angle
_geom_angle_site_symmetry_1
_geom_angle_site_symmetry_2
_geom_angle_site_symmetry_3
_geom_angle_publ_flag
N1 Zn1 N1 111.59(18) 1_555 . 10_565 N
N1 Zn1 N1 108.42(9) 1_555 . 106_554 N
N1 Zn1 N1 108.42(9) 1_555 . 122_555 N
N1 Zn1 N1 108.42(9) 10_565 . 106_554 N
N1 Zn1 N1 108.42(9) 10_565 . 122_555 N
N1 Zn1 N1 111.59(18) 106_554 . 122_555 N
Cl C1 N1 122.32(30) 1_555 . 1_555 N
Cl C1 N1 122.32(30) 1_555 . 18_555 N
Cl C1 Cl' 20.29(24) 1_555 . 1_555 N
Cl C1 C1' 106(6) 1_555 . 1_555 N
N1 C1 N1 115.2(6) 1_555 . 18_555 N
N1 C1 Cl' 120.82(28) 1_555 . 1_555 N
N1 C1 C1' 83.1(31) 1_555 . 1_555 N
N1 C1 Cl' 120.83(28) 18_555 . 1_555 N
N1 C1 C1' 83.1(31) 18_555 . 1_555 N
Cl' C1 C1' 86(6) 1_555 . 1_555 N
C2 C2 N1 111.28(26) 18_555 . 1_555 N
C2 C2 H1 125.0(10) 18_555 . 1_555 N
C2 C2 C2' 89.4(11) 18_555 . 1_555 N
C2 C2 C2' 17.18(28) 18_555 . 18_555 N
C2 C2 H1' 120.6(10) 18_555 . 1_555 N
N1 C2 H1 123.7(10) 1_555 . 1_555 N
N1 C2 C2' 80.5(10) 1_555 . 1_555 N
N1 C2 C2' 107.3(5) 1_555 . 18_555 N
N1 C2 H1' 113.9(9) 1_555 . 1_555 N
H1 C2 C2' 96.7(14) 1_555 . 1_555 N
H1 C2 C2' 125.5(10) 1_555 . 18_555 N
H1 C2 H1' 33.6(6) 1_555 . 1_555 N
C2' C2 C2' 72.2(11) 1_555 . 18_555 N
C2' C2 H1' 63.1(12) 1_555 . 1_555 N
C2' C2 H1' 110.5(10) 18_555 . 1_555 N
C1 Cl Cl' 78.0(10) 1_555 . 1_555 N
C1 Cl C1' 3.41(28) 1_555 . 1_555 N
Cl' Cl C1' 74.6(10) 1_555 . 1_555 N
Zn1 N1 C1 130.08(31) 1_555 . 1_555 N
Zn1 N1 C2 128.58(31) 1_555 . 1_555 N
Zn1 N1 C1' 130.63(31) 1_555 . 1_555 N
Zn1 N1 C2' 128.95(30) 1_555 . 1_555 N
C1 N1 C2 101.0(4) 1_555 . 1_555 N
C1 N1 C1' 4.42(34) 1_555 . 1_555 N
C1 N1 C2' 100.0(4) 1_555 . 1_555 N
C2 N1 C1' 99.8(4) 1_555 . 1_555 N
C2 N1 C2' 17.02(28) 1_555 . 1_555 N
C1' N1 C2' 100.1(4) 1_555 . 1_555 N
C2 H1 C2' 22.4(5) 1_555 . 1_555 N
C2 H1 H1' 83.7(19) 1_555 . 1_555 N
C2' H1 H1' 61.3(16) 1_555 . 1_555 N
C1 Cl' Cl 81.7(10) 1_555 . 1_555 N
C1 Cl' C1' 3.66(29) 1_555 . 1_555 N
Cl Cl' C1' 85.3(11) 1_555 . 1_555 N
C1 C1' Cl 70(6) 1_555 . 1_555 N
C1 C1' N1 92.5(31) 1_555 . 1_555 N
C1 C1' N1 92.5(31) 1_555 . 18_555 N
C1 C1' Cl' 90(6) 1_555 . 1_555 N
Cl C1' N1 120.60(29) 1_555 . 1_555 N
Cl C1' N1 120.60(29) 1_555 . 18_555 N
Cl C1' Cl' 20.04(23) 1_555 . 1_555 N
N1 C1' N1 116.4(6) 1_555 . 18_555 N
N1 C1' Cl' 121.67(30) 1_555 . 1_555 N
N1 C1' Cl' 121.68(30) 18_555 . 1_555 N
C2 C2' C2 73.5(12) 1_555 . 18_555 N
C2 C2' N1 82.4(10) 1_555 . 1_555 N
C2 C2' H1 60.9(12) 1_555 . 1_555 N
C2 C2' C2' 90.6(11) 1_555 . 18_555 N
C2 C2' H1' 94.0(14) 1_555 . 1_555 N
C2 C2' N1 108.3(5) 18_555 . 1_555 N
C2 C2' H1 110.1(9) 18_555 . 1_555 N
C2 C2' C2' 17.18(28) 18_555 . 18_555 N
C2 C2' H1' 124.9(10) 18_555 . 1_555 N
N1 C2' H1 114.1(9) 1_555 . 1_555 N
N1 C2' C2' 111.60(26) 1_555 . 18_555 N
N1 C2' H1' 123.3(10) 1_555 . 1_555 N
H1 C2' C2' 120.6(9) 1_555 . 18_555 N
H1 C2' H1' 33.2(6) 1_555 . 1_555 N
C2' C2' H1' 125.1(10) 18_555 . 1_555 N
C2 H1' H1 62.7(16) 1_555 . 1_555 N
C2 H1' C2' 22.9(5) 1_555 . 1_555 N
H1 H1' C2' 85.6(19) 1_555 . 1_555 N

# Powder diffraction data for histogram  1
#==============================================================================
# 9. INSTRUMENT CHARACTERIZATION

_exptl_special_details           
; ?
;

# if regions of the data are excluded, the reason(s) are supplied here:
_pd_proc_info_excluded_regions   
; ?
;

# The following item is used to identify the equipment used to record
# the powder pattern when the diffractogram was measured at a laboratory
# other than the authors' home institution, e.g. when neutron or synchrotron
# radiation is used.

_pd_instr_location               
; ?
;
_pd_calibration_special_details  
# description of the method used
# to calibrate the instrument
; ?
;

_diffrn_ambient_temperature      293
_diffrn_source                   ?
_diffrn_source_target            ?
_diffrn_source_type              ?
_diffrn_measurement_device_type  ?
_diffrn_detector                 ?
_diffrn_detector_type            ? # make or model of detector

_pd_meas_scan_method             ? # options are 'step', 'cont',
# 'tof', 'fixed' or
# 'disp' (= dispersive)
_pd_meas_special_details         
;  ?
;

# The following two items identify the program(s) used (if appropriate).
_computing_data_collection       ?
_computing_data_reduction        ?

# Describe any processing performed on the data, prior to refinement.
# For example: a manual Lp correction or a precomputed absorption correction
_pd_proc_info_data_reduction     ?

# The following item is used for angular dispersive measurements only.

_diffrn_radiation_monochromator  ?

# The following items are used to define the size of the instrument.
# Not all distances are appropriate for all instrument types.

_pd_instr_dist_src/mono          ?
_pd_instr_dist_mono/spec         ?
_pd_instr_dist_src/spec          ?
_pd_instr_dist_spec/anal         ?
_pd_instr_dist_anal/detc         ?
_pd_instr_dist_spec/detc         ?

# 10. Specimen size and mounting information

# The next three fields give the specimen dimensions in mm.  The equatorial
# plane contains the incident and diffracted beam.

_pd_spec_size_axial              ? # perpendicular to
# equatorial plane

_pd_spec_size_equat              ? # parallel to
# scattering vector
# in transmission

_pd_spec_size_thick              ? # parallel to
# scattering vector
# in reflection

_pd_spec_mounting                
# This field should be
# used to give details of the
# container.
; ?
;

_pd_spec_mount_mode              ? # options are 'reflection'
# or 'transmission'

_pd_spec_shape                   ? # options are 'cylinder'
# 'flat_sheet' or 'irregular'


loop_
_atom_type_symbol
_atom_type_number_in_cell
_atom_type_scat_dispersion_real
_atom_type_scat_dispersion_imag
_atom_type_scat_Cromer_Mann_a1
_atom_type_scat_Cromer_Mann_a2
_atom_type_scat_Cromer_Mann_a3
_atom_type_scat_Cromer_Mann_a4
_atom_type_scat_Cromer_Mann_b1
_atom_type_scat_Cromer_Mann_b2
_atom_type_scat_Cromer_Mann_b3
_atom_type_scat_Cromer_Mann_b4
_atom_type_scat_Cromer_Mann_c
_atom_type_scat_source
Zn 12.0 0.000 0.000 14.0743 3.26550 7.03180 0.23330 5.16520 10.3163 2.41000
58.7097 1.30410 International_Tables_Vol_C
C 72.0 0.000 0.000 2.31000 20.8439 1.02000 10.2075 1.58860 0.56870 0.86500
51.6512 0.21560 International_Tables_Vol_C
Cl 24.0 0.000 0.000 11.4604 0.01040 7.19640 1.16620 6.25560 18.5194 1.64550
47.7784 -9.5574 International_Tables_Vol_C
N 48.0 0.000 0.000 12.2126 0.00570 3.13220 9.89330 2.01250 28.9975 1.16630
0.58260 -11.529 International_Tables_Vol_C
H 48.0 0.000 0.000 0.49300 10.5109 0.32291 26.1257 0.14019 3.14236 0.04081
57.7997 0.00304 International_Tables_Vol_C
_diffrn_radiation_probe          x-ray
_diffrn_radiation_polarisn_ratio 0.799
_diffrn_radiation_wavelength     1.5406
_diffrn_radiation_type           ?
_pd_proc_ls_prof_R_factor        0.0361
_pd_proc_ls_prof_wR_factor       0.0531
_pd_proc_ls_prof_wR_expected     0.0290
_refine_ls_R_Fsqd_factor         0.05796

_pd_proc_ls_background_function  
;   GSAS Background function number 1 with 22 terms.
 Shifted Chebyshev function of 1st kind
      1:    729.085     2:   -414.712     3:    65.0359     4:    65.9165    
      5:   -46.8265     6:    3.79269     7:    49.1012     8:   -46.8528    
      9:   -3.51446    10:    42.6579    11:   -27.0930    12:    2.54487    
     13:    10.1433    14:    3.68470    15:   -19.1295    16:    18.5934    
     17:   -6.79885    18:   -1.21913    19:   -13.7455    20:    17.6962    
     21:   -5.81521    22:    4.60275    
;

_exptl_absorpt_process_details   
;   GSAS Absorption/surface roughness correction: function number 0
 No correction is applied.
;
_exptl_absorpt_correction_T_min  1.00000
_exptl_absorpt_correction_T_max  1.00000
# Extinction correction
_gsas_exptl_extinct_corr_T_min   1.00000
_gsas_exptl_extinct_corr_T_max   1.00000

_pd_proc_ls_profile_function     
;
 CW Profile function number 3 with  19 terms
 Pseudovoigt profile coefficients as parameterized in
 P. Thompson, D.E. Cox & J.B. Hastings (1987). J. Appl. Cryst.,20,79-83.
 Asymmetry correction of L.W. Finger, D.E. Cox & A. P. Jephcoat (1994).
 J. Appl. Cryst.,27,892-900.
 #1(GU)   =    2.134 #2(GV)   =  -20.310 #3(GW)   =  -48.155
 #4(GP)   =   60.805 #5(LX)   =    1.461 #6(LY)   =   17.579
 #7(S/L)  =   0.0203 #8(H/L)  =   0.0206
 #9(trns) =     1.42 #10(shft)=  -2.5408
 #11(stec)=    46.52 #12(ptec)=    -0.07 #13(sfec)=     0.00
 #14(L11) =   -0.042 #15(L22) =   -0.038 #16(L33) =   -0.115
 #17(L12) =    0.002 #18(L13) =   -0.057 #19(L23) =   -0.043
 Peak tails are ignored  where the intensity is below 0.0005 times the peak
   Aniso. broadening axis   0.0   0.0   1.0
;
_pd_proc_ls_peak_cutoff          0.00050
_pd_proc_info_datetime           2018-05-22T17:22:57
_pd_calc_method                  'Rietveld Refinement'

#---- raw/calc data loop -----
_pd_meas_2theta_range_min        6.0
_pd_meas_2theta_range_max        94.99
_pd_meas_2theta_range_inc        0.01
_pd_proc_2theta_range_min        6.00451
_pd_proc_2theta_range_max        94.99451
_pd_proc_2theta_range_inc        0.01

loop_
_pd_meas_counts_total
_pd_proc_ls_weight
_pd_proc_intensity_bkg_calc
_pd_calc_intensity_total
1129.0 0.0 1021.29193 .
1113.0 0.0 1027.58215 .
1133.0 0.000883 1033.73730 1080.54260
1135.0 0.000881 1039.75940 1087.32178
1123.0 0.000890 1045.64978 1093.98779
1105.0 0.000905 1051.41101 1100.54395
1142.0 0.000876 1057.04419 1106.99194
1159.0 0.000863 1062.55188 1113.33496
1181.0 0.000847 1067.93542 1119.57507
1142.0 0.000876 1073.19690 1125.71509
1155.0 0.000866 1078.33765 1131.75708
1162.0 0.000861 1083.35999 1137.70422
1141.0 0.000876 1088.26489 1143.55835
1125.0 0.000889 1093.05481 1149.32263
1125.0 0.000889 1097.73096 1154.99939
1157.0 0.000864 1102.29565 1160.59180
1140.0 0.000877 1106.74963 1166.10156
1116.0 0.000896 1111.09521 1171.53210
1173.0 0.000853 1115.33374 1176.88574
1172.0 0.000853 1119.46692 1182.16541
1159.0 0.000863 1123.49609 1187.37366
1174.0 0.000852 1127.42322 1192.51367
1120.0 0.000893 1131.24963 1197.58813
1137.0 0.000880 1134.97681 1202.59985
1165.0 0.000858 1138.60620 1207.55188
1146.0 0.000873 1142.13977 1212.44751
1120.0 0.000893 1145.57849 1217.28931
1184.0 0.000845 1148.92383 1222.08057
1188.0 0.000842 1152.17749 1226.82471
1152.0 0.000868 1155.34082 1231.52502
1190.0 0.000840 1158.41541 1236.18494
1145.0 0.000873 1161.40210 1240.80750
1174.0 0.000852 1164.30286 1245.39673
1182.0 0.000846 1167.11865 1249.95593
1143.0 0.000875 1169.85120 1254.48938
1188.0 0.000842 1172.50159 1259.00061
1241.0 0.000806 1175.07117 1263.49390
1139.0 0.000878 1177.56116 1267.97302
1179.0 0.000848 1179.97314 1272.44299
1161.0 0.000861 1182.30798 1276.90771
1182.0 0.000846 1184.56738 1281.37219
1200.0 0.000833 1186.75232 1285.84131
1161.0 0.000861 1188.86401 1290.32019
1208.0 0.000828 1190.90369 1294.81384
1251.0 0.000799 1192.87268 1299.32837
1215.0 0.000823 1194.77209 1303.86926
1184.0 0.000845 1196.60303 1308.44287
1205.0 0.000830 1198.36670 1313.05542
1241.0 0.000806 1200.06433 1317.71399
1203.0 0.000831 1201.69678 1322.42554
1237.0 0.000808 1203.26563 1327.19800
1261.0 0.000793 1204.77161 1332.03918
1244.0 0.000804 1206.21594 1336.95764
1262.0 0.000792 1207.59961 1341.96252
1282.0 0.000780 1208.92383 1347.06348
1282.0 0.000780 1210.18945 1352.27075
1254.0 0.000797 1211.39771 1357.59546
1280.0 0.000781 1212.54956 1363.04944
1305.0 0.000766 1213.64600 1368.64526
1299.0 0.000770 1214.68811 1374.39661
1344.0 0.000744 1215.67664 1380.31799
1321.0 0.000757 1216.61292 1386.42542
1336.0 0.000749 1217.49768 1392.73572
1340.0 0.000746 1218.33191 1399.26758
1389.0 0.000720 1219.11646 1406.04102
1409.0 0.000710 1219.85254 1413.07800
1415.0 0.000707 1220.54065 1420.40222
1368.0 0.000731 1221.18225 1428.04028
1464.0 0.000683 1221.77771 1436.02026
1461.0 0.000684 1222.32813 1444.37390
1547.0 0.000646 1222.83435 1453.13599
1497.0 0.000668 1223.29736 1462.34485
1539.0 0.000650 1223.71790 1472.04333
1619.0 0.000618 1224.09668 1482.27856
1608.0 0.000622 1224.43481 1493.10413
1656.0 0.000604 1224.73291 1504.57910
1743.0 0.000574 1224.99182 1516.77075
1769.0 0.000565 1225.21240 1529.75500
1839.0 0.000544 1225.39526 1543.61792
1866.0 0.000536 1225.54138 1558.45862
1968.0 0.000508 1225.65137 1574.39111
2085.0 0.000480 1225.72620 1591.54956
2109.0 0.000474 1225.76636 1610.09497
2168.0 0.000461 1225.77283 1630.22925
2247.0 0.000445 1225.74609 1652.22156
2443.0 0.000409 1225.68701 1676.45862
2524.0 0.000396 1225.59619 1703.53479
2645.0 0.000378 1225.47449 1734.40491
2765.0 0.000362 1225.32251 1770.61731
2880.0 0.0003472 1225.14087 1814.63501
3071.0 0.0003256 1224.93030 1870.22192
3263.0 0.0003065 1224.69153 1942.82092
3459.0 0.0002891 1224.42505 2039.81299
3548.0 0.0002818 1224.13159 2170.50781
3863.0 0.0002589 1223.81177 2345.73999
4096.0 0.0002441 1223.46619 2576.99048
4354.0 0.0002297 1223.09558 2875.06519
4653.0 0.0002149 1222.70044 3248.53369
5048.0 0.0001981 1222.28125 3702.43750
5369.0 0.0001863 1221.83887 4237.81445
5834.0 0.0001714 1221.37390 4852.22119
6213.0 0.0001610 1220.88647 5541.00488
6691.0 0.0001495 1220.37769 6298.77490
7088.0 0.0001411 1219.84778 7120.64697
7692.0 0.0001300 1219.29736 8003.08496
8420.0 0.0001188 1218.72693 8944.37207
9030.0 0.0001107 1218.13721 9944.69922
9687.0 0.0001032 1217.52856 11006.07227
10485.0 0.0000954 1216.90149 12132.10059
11453.0 0.0000873 1216.25659 13327.83594
12418.0 0.0000805 1215.59436 14599.66797
13715.0 0.0000729 1214.91528 15955.33203
14774.0 0.0000677 1214.21985 17404.03711
16044.0 0.0000623 1213.50842 18956.71680
17770.0 0.0000563 1212.78174 20626.41992
19617.0 0.0000510 1212.03992 22428.83203
21196.0 0.0000472 1211.28369 24383.10547
23450.0 0.0000426 1210.51343 26512.99414
25783.0 0.0000388 1209.72961 28848.62891
28181.0 0.0000355 1208.93262 31429.10938
30940.0 0.0000323 1208.12292 34306.39453
34775.0 0.0000288 1207.30090 37550.51172
38597.0 0.0000259 1206.46704 41255.82422
43119.0 0.0000232 1205.62170 45546.26953
48490.0 0.0000206 1204.76526 50575.15625
54777.0 0.0000183 1203.89832 56511.98828
62104.0 0.0000161 1203.02087 63506.73438
70742.0 0.0000141 1202.13379 71624.71094
80491.0 0.0000124 1201.23706 80754.10156
91316.0 0.0000110 1200.33130 90505.42188
102975.0 9.71e-6 1199.41675 100139.01563
112404.0 8.90e-6 1198.49390 108565.01563
118183.0 8.46e-6 1197.56287 114448.59375
119237.0 8.39e-6 1196.62427 116432.21094
114440.0 8.74e-6 1195.67834 113478.78906
104749.0 9.55e-6 1194.72534 105312.70313
91484.0 0.0000109 1193.76575 92752.26563
76441.0 0.0000131 1192.79980 77543.03125
61102.0 0.0000164 1191.82788 61704.32031
46655.0 0.0000214 1190.85034 46925.16406
34317.0 0.0000291 1189.86719 34301.28516
25228.0 0.0000396 1188.87915 24317.00586
18074.0 0.0000553 1187.88635 16951.69141
13060.0 0.0000766 1186.88904 11849.76953
9588.0 0.0001043 1185.88745 8502.58789
7162.0 0.0001396 1184.88220 6395.92578
5589.0 0.0001789 1183.87317 5098.85791
4492.0 0.0002226 1182.86084 4295.71631
3777.0 0.0002648 1181.84534 3778.94995
3364.0 0.0002973 1180.82727 3423.85547
2894.0 0.0003455 1179.80652 3160.79517
2679.0 0.000373 1178.78345 2952.83545
2472.0 0.000405 1177.75842 2780.76904
2313.0 0.000432 1176.73157 2634.33911
2249.0 0.000445 1175.70313 2507.62793
2136.0 0.000468 1174.67346 2396.82666
1979.0 0.000505 1173.64270 2299.22046
1965.0 0.000509 1172.61108 2212.72974
1909.0 0.000524 1171.57898 2135.69629
1869.0 0.000535 1170.54639 2066.76782
1744.0 0.000573 1169.51355 2004.82703
1735.0 0.000576 1168.48083 1948.94373
1724.0 0.000580 1167.44836 1898.33765
1678.0 0.000596 1166.41626 1852.35022
1628.0 0.000614 1165.38489 1810.42285
1595.0 0.000627 1164.35425 1772.07910
1578.0 0.000634 1163.32483 1736.91077
1539.0 0.000650 1162.29651 1704.56580
1532.0 0.000653 1161.26953 1674.74011
1522.0 0.000657 1160.24426 1647.17004
1449.0 0.000690 1159.22070 1621.62488
1474.0 0.000678 1158.19897 1597.90344
1378.0 0.000726 1157.17944 1575.82886
1399.0 0.000715 1156.16223 1555.24548
1409.0 0.000710 1155.14734 1536.01514
1436.0 0.000696 1154.13513 1518.01636
1389.0 0.000720 1153.12549 1501.14026
1377.0 0.000726 1152.11890 1485.29028
1369.0 0.000730 1151.11536 1470.38000
1349.0 0.000741 1150.11487 1456.33191
1348.0 0.000742 1149.11780 1443.07654
1343.0 0.000745 1148.12415 1430.55127
1305.0 0.000766 1147.13416 1418.69971
1273.0 0.000786 1146.14783 1407.47058
1288.0 0.000776 1145.16541 1396.81787
1336.0 0.000749 1144.18689 1386.69958
1319.0 0.000758 1143.21240 1377.07739
1258.0 0.000795 1142.24231 1367.91687
1247.0 0.000802 1141.27649 1359.18604
1316.0 0.000760 1140.31506 1350.85596
1264.0 0.000791 1139.35815 1342.90002
1242.0 0.000805 1138.40601 1335.29419
1246.0 0.000803 1137.45862 1328.01599
1278.0 0.000782 1136.51611 1321.04468
1252.0 0.000799 1135.57849 1314.36157
1271.0 0.000787 1134.64600 1307.94922
1259.0 0.000794 1133.71863 1301.79138
1282.0 0.000780 1132.79651 1295.87329
1242.0 0.000805 1131.87964 1290.18103
1206.0 0.000829 1130.96838 1284.70215
1216.0 0.000822 1130.06238 1279.42432
1208.0 0.000828 1129.16211 1274.33704
1214.0 0.000824 1128.26746 1269.42969
1201.0 0.000833 1127.37854 1264.69312
1210.0 0.000826 1126.49536 1260.11804
1183.0 0.000845 1125.61816 1255.69653
1174.0 0.000852 1124.74683 1251.42065
1211.0 0.000826 1123.88159 1247.28345
1189.0 0.000841 1123.02234 1243.27783
1156.0 0.000865 1122.16919 1239.39771
1191.0 0.000840 1121.32227 1235.63708
1196.0 0.000836 1120.48169 1231.99060
1177.0 0.000850 1119.64722 1228.45264
1187.0 0.000842 1118.81921 1225.01868
1137.0 0.000880 1117.99756 1221.68384
1158.0 0.000864 1117.18250 1218.44421
1181.0 0.000847 1116.37378 1215.29529
1199.0 0.000834 1115.57166 1212.23340
1223.0 0.000818 1114.77600 1209.25476
1154.0 0.000867 1113.98718 1206.35645
1226.0 0.000816 1113.20496 1203.53479
1244.0 0.000804 1112.42932 1200.78674
1166.0 0.000858 1111.66040 1198.10950
1167.0 0.000857 1110.89844 1195.50061
1163.0 0.000860 1110.14319 1192.95728
1167.0 0.000857 1109.39465 1190.47681
1144.0 0.000874 1108.65308 1188.05725
1172.0 0.000853 1107.91833 1185.69629
1146.0 0.000873 1107.19055 1183.39185
1131.0 0.000884 1106.46960 1181.14185
1139.0 0.000878 1105.75562 1178.94458
1125.0 0.000889 1105.04871 1176.79822
1190.0 0.000840 1104.34863 1174.70093
1143.0 0.000875 1103.65564 1172.65112
1133.0 0.000883 1102.96960 1170.64734
1136.0 0.000880 1102.29065 1168.68823
1132.0 0.000883 1101.61865 1166.77197
1126.0 0.000888 1100.95374 1164.89771
1185.0 0.000844 1100.29590 1163.06384
1152.0 0.000868 1099.64514 1161.26941
1111.0 0.000900 1099.00146 1159.51294
1158.0 0.000864 1098.36475 1157.79358
1126.0 0.000888 1097.73511 1156.10999
1131.0 0.000884 1097.11267 1154.46155
1124.0 0.000890 1096.49719 1152.84692
1131.0 0.000884 1095.88892 1151.26550
1140.0 0.000877 1095.28760 1095.28760
1123.0 0.000890 1094.69336 1094.69336
1086.0 0.000921 1094.10620 1094.10620
1115.0 0.000897 1093.52612 1093.52612
1123.0 0.000890 1092.95313 1092.95313
1134.0 0.000882 1092.38708 1092.38708
1096.0 0.000912 1091.82813 1091.82813
1132.0 0.000883 1091.27625 1091.27625
1071.0 0.000934 1090.73132 1090.73132
1094.0 0.000914 1090.19336 1090.19336
1100.0 0.000909 1089.66248 1089.66248
1115.0 0.000897 1089.13855 1089.13855
1140.0 0.000877 1088.62146 1088.62146
1116.0 0.000896 1088.11145 1088.11145
1117.0 0.000895 1087.60828 1087.60828
1112.0 0.000899 1087.11206 1087.11206
1099.0 0.000910 1086.62268 1086.62268
1101.0 0.000908 1086.14026 1086.14026
1131.0 0.000884 1085.66455 1085.66455
1099.0 0.000910 1085.19580 1085.19580
1151.0 0.000869 1084.73389 1084.73389
1118.0 0.000894 1084.27856 1084.27856
1110.0 0.000901 1083.83008 1083.83008
1117.0 0.000895 1083.38843 1083.38843
1119.0 0.000894 1082.95337 1082.95337
1089.0 0.000918 1082.52502 1082.52502
1116.0 0.000896 1082.10327 1082.10327
1128.0 0.000887 1081.68823 1081.68823
1128.0 0.000887 1081.27966 1081.27966
1094.0 0.000914 1080.87781 1080.87781
1135.0 0.000881 1080.48230 1080.48230
1095.0 0.000913 1080.09338 1080.09338
1121.0 0.000892 1079.71106 1079.71106
1096.0 0.000912 1079.33496 1079.33496
1093.0 0.000915 1078.96545 1078.96545
1119.0 0.000894 1078.60217 1078.60217
1117.0 0.000895 1078.24536 1078.24536
1108.0 0.000903 1077.89478 1077.89478
1096.0 0.000912 1077.55042 1077.55042
1095.0 0.000913 1077.21228 1077.21228
1102.0 0.000907 1076.88049 1076.88049
1104.0 0.000906 1076.55469 1076.55469
1074.0 0.000931 1076.23511 1076.23511
1145.0 0.000873 1075.92163 1075.92163
1117.0 0.000895 1075.61414 1075.61414
1106.0 0.000904 1075.31274 1075.31274
1076.0 0.000929 1075.01721 1075.01721
1106.0 0.000904 1074.72766 1074.72766
1109.0 0.000902 1074.44397 1074.44397
1102.0 0.000907 1074.16614 1074.16614
1103.0 0.000907 1073.89417 1073.89417
1121.0 0.000892 1073.62781 1073.62781
1099.0 0.000910 1073.36731 1073.36731
1124.0 0.000890 1073.11255 1073.11255
1123.0 0.000890 1072.86328 1072.86328
1102.0 0.000907 1072.61975 1072.61975
1092.0 0.000916 1072.38171 1072.38171
1124.0 0.000890 1072.14917 1072.14917
1134.0 0.000882 1071.92212 1071.92212
1063.0 0.000941 1071.70044 1071.70044
1108.0 0.000903 1071.48425 1071.48425
1098.0 0.000911 1071.27332 1071.27332
1113.0 0.000898 1071.06775 1071.06775
1079.0 0.000927 1070.86731 1070.86731
1049.0 0.000953 1070.67224 1070.67224
1093.0 0.000915 1070.48218 1070.48218
1108.0 0.000903 1070.29736 1070.29736
1118.0 0.000894 1070.11755 1070.11755
1090.0 0.000917 1069.94275 1069.94275
1086.0 0.000921 1069.77295 1069.77295
1081.0 0.000925 1069.60803 1069.60803
1086.0 0.000921 1069.44800 1069.44800
1092.0 0.000916 1069.29285 1069.29285
1085.0 0.000922 1069.14246 1069.14246
1068.0 0.000936 1068.99683 1068.99683
1100.0 0.000909 1068.85596 1068.85596
1102.0 0.000907 1068.71960 1068.71960
1089.0 0.000918 1068.58789 1068.58789
1104.0 0.000906 1068.46082 1079.41431
1094.0 0.000914 1068.33813 1079.49316
1100.0 0.000909 1068.21997 1079.58215
1093.0 0.000915 1068.10632 1079.68152
1053.0 0.000950 1067.99683 1079.79102
1098.0 0.000911 1067.89185 1079.91138
1107.0 0.000903 1067.79102 1080.04248
1056.0 0.000947 1067.69446 1080.18457
1102.0 0.000907 1067.60205 1080.33801
1098.0 0.000911 1067.51379 1080.50281
1111.0 0.000900 1067.42957 1080.67932
1113.0 0.000898 1067.34937 1080.86780
1128.0 0.000887 1067.27319 1081.06860
1081.0 0.000925 1067.20093 1081.28198
1089.0 0.000918 1067.13257 1081.50830
1052.0 0.000951 1067.06799 1081.74768
1093.0 0.000915 1067.00732 1082.00073
1076.0 0.000929 1066.95032 1082.26770
1085.0 0.000922 1066.89697 1082.54895
1116.0 0.000896 1066.84729 1082.84509
1074.0 0.000931 1066.80127 1083.15649
1105.0 0.000905 1066.75879 1083.48352
1094.0 0.000914 1066.71973 1083.82678
1113.0 0.000898 1066.68420 1084.18677
1122.0 0.000891 1066.65198 1084.56409
1140.0 0.000877 1066.62329 1084.95959
1130.0 0.000885 1066.59778 1085.37354
1064.0 0.000940 1066.57556 1085.80688
1084.0 0.000923 1066.55652 1086.26025
1063.0 0.000941 1066.54077 1086.73462
1100.0 0.000909 1066.52808 1087.23059
1080.0 0.000926 1066.51843 1087.74927
1084.0 0.000923 1066.51184 1088.29163
1059.0 0.000944 1066.50830 1088.85864
1067.0 0.000937 1066.50757 1089.45142
1105.0 0.000905 1066.50977 1090.07117
1088.0 0.000919 1066.51489 1090.71936
1068.0 0.000936 1066.52271 1091.39697
1079.0 0.000927 1066.53333 1092.10596
1088.0 0.000919 1066.54663 1092.84753
1112.0 0.000899 1066.56262 1093.62366
1115.0 0.000897 1066.58118 1094.43604
1145.0 0.000873 1066.60242 1095.28687
1119.0 0.000894 1066.62610 1096.17810
1129.0 0.000886 1066.65222 1097.11194
1133.0 0.000883 1066.68079 1098.09119
1061.0 0.000943 1066.71179 1099.11853
1107.0 0.000903 1066.74512 1100.19690
1073.0 0.000932 1066.78076 1101.32935
1073.0 0.000932 1066.81860 1102.51953
1063.0 0.000941 1066.85876 1103.77136
1143.0 0.000875 1066.90100 1105.08875
1123.0 0.000890 1066.94531 1106.47620
1086.0 0.000921 1066.99182 1107.93896
1117.0 0.000895 1067.04028 1109.48230
1071.0 0.000934 1067.09082 1111.11218
1079.0 0.000927 1067.14319 1112.83521
1122.0 0.000891 1067.19751 1114.65857
1102.0 0.000907 1067.25378 1116.59045
1136.0 0.000880 1067.31177 1118.63940
1117.0 0.000895 1067.37158 1120.81567
1182.0 0.000846 1067.43311 1123.12976
1135.0 0.000881 1067.49634 1125.59424
1115.0 0.000897 1067.56128 1128.22266
1164.0 0.000859 1067.62781 1131.03027
1157.0 0.000864 1067.69580 1134.03430
1161.0 0.000861 1067.76538 1137.25439
1204.0 0.000831 1067.83655 1140.71252
1175.0 0.000851 1067.90906 1144.43384
1209.0 0.000827 1067.98303 1148.44714
1187.0 0.000842 1068.05835 1152.78528
1204.0 0.000831 1068.13501 1157.48645
1219.0 0.000820 1068.21301 1162.59497
1215.0 0.000823 1068.29224 1168.16321
1267.0 0.000789 1068.37268 1174.25427
1289.0 0.000776 1068.45422 1180.94690
1343.0 0.000745 1068.53699 1188.34534
1329.0 0.000752 1068.62085 1196.59692
1353.0 0.000739 1068.70569 1205.92456
1405.0 0.000712 1068.79163 1216.68323
1477.0 0.000677 1068.87854 1229.44592
1503.0 0.000665 1068.96643 1245.12549
1547.0 0.000646 1069.05518 1265.12573
1623.0 0.000616 1069.14490 1291.49695
1652.0 0.000605 1069.23535 1327.05591
1732.0 0.000577 1069.32666 1375.41821
1831.0 0.000546 1069.41870 1440.88745
1948.0 0.000513 1069.51147 1528.17224
2038.0 0.000491 1069.60498 1641.92383
2217.0 0.000451 1069.69922 1786.16882
2371.0 0.000422 1069.79407 1963.83118
2466.0 0.000406 1069.88940 2176.55835
2662.0 0.000376 1069.98535 2424.86572
2852.0 0.0003506 1070.08191 2708.61499
3126.0 0.0003199 1070.17883 3027.63306
3397.0 0.0002944 1070.27625 3382.26025
3686.0 0.0002713 1070.37415 3773.82837
4204.0 0.0002379 1070.47241 4205.01318
4538.0 0.0002204 1070.57104 4680.20898
5111.0 0.0001957 1070.67004 5205.90918
5618.0 0.0001780 1070.76929 5791.34277
6404.0 0.0001562 1070.86890 6449.34766
7099.0 0.0001409 1070.96863 7197.57959
8215.0 0.0001217 1071.06860 8059.74805
9166.0 0.0001091 1071.16870 9066.22754
10449.0 0.0000957 1071.26904 10252.62988
12125.0 0.0000825 1071.36951 11654.46680
13893.0 0.0000720 1071.46997 13295.94336
16041.0 0.0000623 1071.57056 15172.37500
18657.0 0.0000536 1071.67114 17228.71289
20858.0 0.0000479 1071.77173 19340.52930
22987.0 0.0000435 1071.87231 21306.69727
24117.0 0.0000415 1071.97290 22862.06055
24562.0 0.0000407 1072.07336 23714.53711
23866.0 0.0000419 1072.17358 23608.30273
22027.0 0.0000454 1072.27380 22413.36719
19312.0 0.0000518 1072.37378 20215.34180
16375.0 0.0000611 1072.47363 17323.93555
13264.0 0.0000754 1072.57324 14157.42383
10285.0 0.0000972 1072.67261 11098.05273
7968.0 0.0001255 1072.77173 8413.87012
5959.0 0.0001678 1072.87048 6243.19141
4624.0 0.0002163 1072.96899 4611.13477
3447.0 0.0002901 1073.06714 3462.32397
2811.0 0.000356 1073.16479 2699.07739
2332.0 0.000429 1073.26221 2214.81934
1937.0 0.000516 1073.35913 1916.11426
1774.0 0.000564 1073.45569 1732.28101
1630.0 0.000613 1073.55176 1615.68359
1505.0 0.000664 1073.64722 1537.14368
1423.0 0.000703 1073.74231 1480.13562
1410.0 0.000709 1073.83679 1435.82336
1356.0 0.000737 1073.93066 1399.61169
1324.0 0.000755 1074.02405 1369.07190
1240.0 0.000806 1074.11682 1342.82947
1266.0 0.000790 1074.20898 1320.01965
1250.0 0.000800 1074.30042 1300.03760
1253.0 0.000798 1074.39124 1282.42615
1209.0 0.000827 1074.48132 1266.82324
1244.0 0.000804 1074.57080 1252.93542
1215.0 0.000823 1074.65955 1240.52124
1192.0 0.000839 1074.74744 1229.38025
1212.0 0.000825 1074.83472 1219.34521
1166.0 0.000858 1074.92114 1210.27502
1151.0 0.000869 1075.00671 1202.05054
1167.0 0.000857 1075.09155 1194.57043
1112.0 0.000899 1075.17554 1187.74805
1155.0 0.000866 1075.25854 1181.50879
1138.0 0.000879 1075.34082 1175.78882
1143.0 0.000875 1075.42212 1170.53223
1116.0 0.000896 1075.50256 1165.69080
1161.0 0.000861 1075.58203 1161.22217
1120.0 0.000893 1075.66064 1160.90125
1129.0 0.000886 1075.73828 1157.11169
1153.0 0.000867 1075.81482 1153.59705
1145.0 0.000873 1075.89050 1150.33240
1103.0 0.000907 1075.96509 1147.29504
1100.0 0.000909 1076.03870 1144.46509
1117.0 0.000895 1076.11133 1141.82434
1099.0 0.000910 1076.18286 1139.35730
1079.0 0.000927 1076.25330 1137.04907
1119.0 0.000894 1076.32263 1134.88708
1095.0 0.000913 1076.39099 1132.85986
1077.0 0.000929 1076.45813 1130.95654
1122.0 0.000891 1076.52417 1129.16797
1089.0 0.000918 1076.58911 1127.48535
1067.0 0.000937 1076.65295 1125.90100
1140.0 0.000877 1076.71558 1124.40784
1048.0 0.000954 1076.77698 1122.99927
1101.0 0.000908 1076.83728 1121.66956
1097.0 0.000912 1076.89636 1120.41321
1112.0 0.000899 1076.95422 1119.22522
1121.0 0.000892 1077.01086 1118.10120
1090.0 0.000917 1077.06628 1117.03687
1116.0 0.000896 1077.12048 1116.02844
1092.0 0.000916 1077.17346 1115.07263
1085.0 0.000922 1077.22522 1114.16589
1120.0 0.000893 1077.27563 1113.30518
1092.0 0.000916 1077.32471 1112.48779
1089.0 0.000918 1077.37268 1111.71155
1100.0 0.000909 1077.41919 1110.97351
1081.0 0.000925 1077.46448 1110.27185
1040.0 0.000962 1077.50842 1109.60425
1055.0 0.000948 1077.55103 1108.96912
1116.0 0.000896 1077.59229 1108.36438
1061.0 0.000943 1077.63232 1107.78870
1075.0 0.000930 1077.67090 1107.24023
1099.0 0.000910 1077.70813 1106.71790
1100.0 0.000909 1077.74402 1106.22009
1067.0 0.000937 1077.77856 1105.74561
1036.0 0.000965 1077.81177 1105.29346
1069.0 0.000935 1077.84351 1104.86243
1075.0 0.000930 1077.87390 1104.45154
1078.0 0.000928 1077.90295 1104.05981
1082.0 0.000924 1077.93054 1103.68640
1092.0 0.000916 1077.95667 1103.33032
1046.0 0.000956 1077.98157 1102.99121
1102.0 0.000907 1078.00488 1102.66797
1062.0 0.000942 1078.02686 1102.35999
1081.0 0.000925 1078.04736 1102.06665
1022.0 0.000978 1078.06653 1101.78748
1051.0 0.000951 1078.08423 1101.52173
1085.0 0.000922 1078.10046 1101.26892
1044.0 0.000958 1078.11523 1101.02856
1079.0 0.000927 1078.12854 1100.80029
1109.0 0.000902 1078.14050 1100.58362
1072.0 0.000933 1078.15100 1100.37817
1042.0 0.000960 1078.16003 1100.18359
1061.0 0.000943 1078.16760 1099.99939
1086.0 0.000921 1078.17358 1099.82520
1064.0 0.000940 1078.17822 1099.66101
1057.0 0.000946 1078.18152 1099.50635
1059.0 0.000944 1078.18323 1099.36108
1059.0 0.000944 1078.18335 1099.22449
1057.0 0.000946 1078.18225 1099.09717
1044.0 0.000958 1078.17944 1098.97827
1063.0 0.000941 1078.17529 1098.86780
1088.0 0.000919 1078.16968 1098.76563
1103.0 0.000907 1078.16260 1098.67163
1018.0 0.000982 1078.15405 1098.58557
1065.0 0.000939 1078.14404 1098.50745
1079.0 0.000927 1078.13257 1098.43701
1041.0 0.000961 1078.11951 1098.37415
1085.0 0.000922 1078.10510 1098.31897
1094.0 0.000914 1078.08911 1098.27124
1036.0 0.000965 1078.07178 1098.23096
1049.0 0.000953 1078.05286 1098.19788
1069.0 0.000935 1078.03259 1088.19824
1065.0 0.000939 1078.01074 1088.35034
1055.0 0.000948 1077.98755 1088.50562
1068.0 0.000936 1077.96277 1088.66394
1049.0 0.000953 1077.93665 1088.82568
1055.0 0.000948 1077.90894 1088.99097
1089.0 0.000918 1077.87988 1089.16003
1063.0 0.000941 1077.84924 1089.33276
1089.0 0.000918 1077.81726 1089.50989
1073.0 0.000932 1077.78381 1089.69128
1119.0 0.000894 1077.74890 1089.87708
1069.0 0.000935 1077.71252 1090.06775
1069.0 0.000935 1077.67480 1090.26343
1042.0 0.000960 1077.63550 1090.46423
1097.0 0.000912 1077.59485 1090.67065
1061.0 0.000943 1077.55273 1090.88281
1106.0 0.000904 1077.50928 1091.10120
1080.0 0.000926 1077.46423 1091.32568
1060.0 0.000943 1077.41785 1091.55701
1063.0 0.000941 1077.37012 1091.79541
1092.0 0.000916 1077.32092 1092.04114
1098.0 0.000911 1077.27026 1092.29468
1063.0 0.000941 1077.21826 1092.55627
1078.0 0.000928 1077.16492 1092.82654
1075.0 0.000930 1077.11011 1093.10559
1105.0 0.000905 1077.05383 1093.39404
1070.0 0.000935 1076.99634 1093.69263
1050.0 0.000952 1076.93738 1094.00146
1028.0 0.000973 1076.87708 1094.32141
1075.0 0.000930 1076.81531 1094.65259
1078.0 0.000928 1076.75232 1094.99609
1055.0 0.000948 1076.68799 1095.35242
1084.0 0.000923 1076.62219 1095.72192
1074.0 0.000931 1076.55505 1096.10559
1089.0 0.000918 1076.48669 1096.50415
1076.0 0.000929 1076.41699 1096.91846
1071.0 0.000934 1076.34583 1097.34900
1088.0 0.000919 1076.27344 1097.79700
1077.0 0.000929 1076.19971 1098.26343
1075.0 0.000930 1076.12476 1098.74915
1087.0 0.000920 1076.04846 1099.25537
1070.0 0.000935 1075.97083 1099.78296
1104.0 0.000906 1075.89197 1100.33350
1065.0 0.000939 1075.81189 1100.90820
1069.0 0.000935 1075.73047 1101.50830
1079.0 0.000927 1075.64783 1102.13538
1081.0 0.000925 1075.56384 1102.79102
1074.0 0.000931 1075.47876 1103.47705
1077.0 0.000929 1075.39233 1104.19507
1092.0 0.000916 1075.30469 1104.94714
1061.0 0.000943 1075.21582 1105.73547
1087.0 0.000920 1075.12585 1106.56238
1082.0 0.000924 1075.03455 1107.43018
1091.0 0.000917 1074.94214 1108.34155
1052.0 0.000951 1074.84851 1109.29932
1085.0 0.000922 1074.75366 1110.30664
1057.0 0.000946 1074.65771 1111.36682
1079.0 0.000927 1074.56055 1112.48352
1078.0 0.000928 1074.46228 1113.66064
1111.0 0.000900 1074.36292 1114.90247
1106.0 0.000904 1074.26233 1116.21350
1079.0 0.000927 1074.16064 1117.59900
1082.0 0.000924 1074.05786 1119.06445
1052.0 0.000951 1073.95398 1120.61597
1101.0 0.000908 1073.84900 1122.26001
1093.0 0.000915 1073.74292 1124.00403
1103.0 0.000907 1073.63574 1125.85608
1101.0 0.000908 1073.52759 1127.82483
1074.0 0.000931 1073.41833 1129.92017
1073.0 0.000932 1073.30798 1132.15271
1110.0 0.000901 1073.19666 1134.53467
1081.0 0.000925 1073.08423 1137.07910
1113.0 0.000898 1072.97083 1139.80115
1090.0 0.000917 1072.85645 1142.71716
1108.0 0.000903 1072.74097 1145.84583
1098.0 0.000911 1072.62463 1149.20813
1120.0 0.000893 1072.50732 1152.82751
1095.0 0.000913 1072.38904 1156.73059
1136.0 0.000880 1072.26965 1160.94763
1128.0 0.000887 1072.14941 1165.51331
1176.0 0.000850 1072.02832 1170.46704
1171.0 0.000854 1071.90625 1175.85388
1193.0 0.000838 1071.78320 1181.72644
1227.0 0.000815 1071.65942 1188.14563
1213.0 0.000824 1071.53455 1195.18225
1215.0 0.000823 1071.40894 1202.92102
1211.0 0.000826 1071.28235 1211.46362
1258.0 0.000795 1071.15503 1220.93774
1301.0 0.000769 1071.02673 1231.51025
1340.0 0.000746 1070.89771 1243.41541
1379.0 0.000725 1070.76782 1257.00269
1433.0 0.000698 1070.63721 1272.81946
1461.0 0.000684 1070.50562 1291.74036
1518.0 0.000659 1070.37329 1315.15002
1586.0 0.000631 1070.24023 1345.17224
1665.0 0.000601 1070.10645 1384.91626
1736.0 0.000576 1069.97180 1438.68298
1880.0 0.000532 1069.83655 1512.05737
2052.0 0.000487 1069.70044 1611.81104
2121.0 0.000471 1069.56360 1745.55859
2381.0 0.000420 1069.42615 1921.15137
2576.0 0.000388 1069.28796 2145.89038
2827.0 0.000354 1069.14905 2425.85547
3063.0 0.0003265 1069.00952 2765.70923
3353.0 0.0002982 1068.86926 3168.97461
3726.0 0.0002684 1068.72839 3638.88013
4198.0 0.0002382 1068.58691 4179.73096
4736.0 0.0002111 1068.44470 4798.26318
5357.0 0.0001867 1068.30200 5505.28418
6197.0 0.0001614 1068.15857 6317.23633
7106.0 0.0001407 1068.01465 7257.66406
8196.0 0.0001220 1067.87012 8357.75195
9572.0 0.0001045 1067.72510 9654.61621
11236.0 0.0000890 1067.57935 11185.44824
13028.0 0.0000768 1067.43323 12975.56152
15464.0 0.0000647 1067.28650 15019.97754
18052.0 0.0000554 1067.13916 17261.04102
20674.0 0.0000484 1066.99146 19568.69141
23156.0 0.0000432 1066.84314 21732.51172
24730.0 0.0000404 1066.69446 23473.94531
25486.0 0.0000392 1066.54517 24483.37891
25221.0 0.0000396 1066.39551 24485.18555
23261.0 0.0000430 1066.24536 23333.41797
20634.0 0.0000485 1066.09485 21110.88672
17572.0 0.0000569 1065.94385 18141.26953
14269.0 0.0000701 1065.79248 14865.51953
11220.0 0.0000891 1065.64063 11686.30762
8616.0 0.0001161 1065.48853 8885.64453
6615.0 0.0001512 1065.33594 6610.31006
4931.0 0.0002028 1065.18298 4889.96240
3777.0 0.0002648 1065.02979 3670.73413
2932.0 0.0003411 1064.87610 2854.07373
2448.0 0.000408 1064.72217 2330.95020
2099.0 0.000476 1064.56799 2004.75842
1834.0 0.000545 1064.41345 1801.68762
1710.0 0.000585 1064.25854 1671.48132
1562.0 0.000640 1064.10339 1583.01904
1454.0 0.000688 1063.94812 1518.46606
1463.0 0.000684 1063.79248 1468.16418
1360.0 0.000735 1063.63660 1427.02332
1413.0 0.000708 1063.48047 1392.31909
1284.0 0.000779 1063.32410 1362.49463
1296.0 0.000772 1063.16760 1336.56567
1289.0 0.000776 1063.01086 1313.84241
1206.0 0.000829 1062.85400 1293.80383
1246.0 0.000803 1062.69690 1276.03809
1246.0 0.000803 1062.53967 1260.21155
1194.0 0.000838 1062.38232 1246.04993
1203.0 0.000831 1062.22485 1233.32581
1170.0 0.000855 1062.06714 1221.84912
1169.0 0.000855 1061.90942 1211.46045
1174.0 0.000852 1061.75171 1202.02466
1186.0 0.000843 1061.59375 1193.42712
1119.0 0.000894 1061.43579 1185.56970
1183.0 0.000845 1061.27771 1178.36841
1159.0 0.000863 1061.11963 1171.75085
1175.0 0.000851 1060.96155 1165.65417
1139.0 0.000878 1060.80334 1160.02380
1107.0 0.000903 1060.64526 1154.81226
1129.0 0.000886 1060.48706 1149.97754
1103.0 0.000907 1060.32886 1145.48340
1109.0 0.000902 1060.17078 1141.29749
1125.0 0.000889 1060.01270 1137.39124
1113.0 0.000898 1059.85461 1133.73926
1091.0 0.000917 1059.69666 1130.31921
1127.0 0.000887 1059.53870 1127.11084
1120.0 0.000893 1059.38086 1124.09631
1106.0 0.000904 1059.22314 1121.25964
1132.0 0.000883 1059.06555 1118.58630
1135.0 0.000881 1058.90808 1116.06323
1103.0 0.000907 1058.75061 1113.67871
1090.0 0.000917 1058.59338 1111.42236
1106.0 0.000904 1058.43628 1109.28430
1120.0 0.000893 1058.27942 1107.25610
1092.0 0.000916 1058.12256 1105.32947
1125.0 0.000889 1057.96606 1103.49744
1103.0 0.000907 1057.80969 1101.75342
1058.0 0.000945 1057.65356 1100.09131
1062.0 0.000942 1057.49756 1098.50562
1085.0 0.000922 1057.34192 1096.99146
1053.0 0.000950 1057.18640 1096.18738
1045.0 0.000957 1057.03125 1094.81189
1071.0 0.000934 1056.87622 1093.49487
1079.0 0.000927 1056.72156 1092.23340
1068.0 0.000936 1056.56726 1091.02356
1082.0 0.000924 1056.41309 1089.86243
1097.0 0.000912 1056.25940 1088.74744
1108.0 0.000903 1056.10583 1087.67542
1070.0 0.000935 1055.95276 1086.64429
1075.0 0.000930 1055.79993 1085.65173
1093.0 0.000915 1055.64758 1084.69556
1073.0 0.000932 1055.49548 1083.77393
1037.0 0.000964 1055.34375 1082.88489
1075.0 0.000930 1055.19250 1082.02673
1061.0 0.000943 1055.04163 1081.19800
1110.0 0.000901 1054.89111 1080.39709
1078.0 0.000928 1054.74097 1079.62256
1043.0 0.000959 1054.59143 1078.87354
1071.0 0.000934 1054.44214 1078.14819
1049.0 0.000953 1054.29333 1077.44568
1057.0 0.000946 1054.14514 1076.76526
1055.0 0.000948 1053.99731 1076.10547
1094.0 0.000914 1053.84998 1075.46558
1066.0 0.000938 1053.70300 1074.84436
1082.0 0.000924 1053.55664 1074.24158
1058.0 0.000945 1053.41089 1073.65637
1110.0 0.000901 1053.26550 1073.08752
1068.0 0.000936 1053.12073 1072.53467
1087.0 0.000920 1052.97644 1071.99719
1059.0 0.000944 1052.83276 1071.47449
1054.0 0.000949 1052.68958 1070.96594
1069.0 0.000935 1052.54700 1070.47095
1050.0 0.000952 1052.40503 1069.98926
1089.0 0.000918 1052.26355 1069.52002
1096.0 0.000912 1052.12280 1069.06311
1061.0 0.000943 1051.98254 1068.61780
1086.0 0.000921 1051.84302 1068.18408
1064.0 0.000940 1051.70410 1067.76135
1088.0 0.000919 1051.56580 1067.34924
1074.0 0.000931 1051.42810 1066.94739
1073.0 0.000932 1051.29114 1066.55554
1076.0 0.000929 1051.15466 1066.17334
1037.0 0.000964 1051.01904 1065.80078
1080.0 0.000926 1050.88403 1065.43726
1074.0 0.000931 1050.74976 1065.08276
1034.0 0.000967 1050.61621 1064.73706
1051.0 0.000951 1050.48328 1064.39978
1035.0 0.000966 1050.35120 1064.07104
1070.0 0.000935 1050.21973 1063.75012
1064.0 0.000940 1050.08899 1063.43726
1037.0 0.000964 1049.95911 1063.13232
1045.0 0.000957 1049.82996 1062.83508
1046.0 0.000956 1049.70154 1062.54529
1034.0 0.000967 1049.57385 1062.26282
1027.0 0.000974 1049.44702 1061.98792
1048.0 0.000954 1049.32092 1061.72009
1051.0 0.000951 1049.19568 1061.45959
1059.0 0.000944 1049.07117 1061.20593
1031.0 0.000970 1048.94751 1060.95935
1062.0 0.000942 1048.82471 1060.71985
1051.0 0.000951 1048.70264 1060.48718
1045.0 0.000957 1048.58154 1060.26160
1077.0 0.000929 1048.46118 1060.04285
1079.0 0.000927 1048.34167 1059.83093
1047.0 0.000955 1048.22314 1059.62622
1037.0 0.000964 1048.10535 1059.42822
1071.0 0.000934 1047.98853 1059.23730
1081.0 0.000925 1047.87256 1059.05347
1061.0 0.000943 1047.75757 1058.87695
1048.0 0.000954 1047.64331 1058.70752
1066.0 0.000938 1047.53003 1058.54553
1032.0 0.000969 1047.41772 1058.39099
1010.0 0.000990 1047.30640 1058.24414
1051.0 0.000951 1047.19580 1058.10510
1056.0 0.000947 1047.08630 1057.97412
1013.0 0.000987 1046.97766 1057.85132
1052.0 0.000951 1046.87000 1057.73706
1099.0 0.000910 1046.76331 1057.63159
1067.0 0.000937 1046.65759 1057.53516
1054.0 0.000949 1046.55286 1057.44824
1064.0 0.000940 1046.44910 1057.37097
1061.0 0.000943 1046.34631 1057.30408
1073.0 0.000932 1046.24451 1057.24792
1049.0 0.000953 1046.14368 1057.20288
1060.0 0.000943 1046.04395 1057.16992
1076.0 0.000929 1045.94519 1057.14929
1058.0 0.000945 1045.84741 1057.14197
1063.0 0.000941 1045.75073 1057.14868
1069.0 0.000935 1045.65503 1057.17029
1065.0 0.000939 1045.56042 1057.20789
1074.0 0.000931 1045.46680 1057.26257
1037.0 0.000964 1045.37427 1057.33545
1053.0 0.000950 1045.28271 1057.42822
1075.0 0.000930 1045.19226 1057.54224
1058.0 0.000945 1045.10291 1057.67932
1091.0 0.000917 1045.01465 1057.84180
1037.0 0.000964 1044.92749 1058.03162
1040.0 0.000962 1044.84131 1058.25134
1058.0 0.000945 1044.75635 1058.50439
1033.0 0.000968 1044.67236 1058.79346
1065.0 0.000939 1044.58960 1059.12292
1063.0 0.000941 1044.50781 1059.49707
1026.0 0.000975 1044.42725 1059.92126
1084.0 0.000923 1044.34778 1060.40149
1049.0 0.000953 1044.26941 1060.94458
1084.0 0.000923 1044.19214 1061.55908
1047.0 0.000955 1044.11597 1062.25488
1023.0 0.000978 1044.04114 1063.04443
1084.0 0.000923 1043.96729 1063.94299
1052.0 0.000951 1043.89453 1064.97168
1013.0 0.000987 1043.82312 1066.16040
1030.0 0.000971 1043.75269 1067.55420
1055.0 0.000948 1043.68347 1069.22375
1074.0 0.000931 1043.61548 1071.28125
1108.0 0.000903 1043.54871 1073.90125
1067.0 0.000937 1043.48303 1077.34656
1125.0 0.000889 1043.41846 1081.99463
1138.0 0.000879 1043.35522 1088.35852
1136.0 0.000880 1043.29309 1097.09436
1163.0 0.000860 1043.23218 1108.99072
1199.0 0.000834 1043.17249 1124.93115
1184.0 0.000845 1043.11389 1145.83423
1209.0 0.000827 1043.05664 1172.58435
1212.0 0.000825 1043.00049 1205.99280
1277.0 0.000783 1042.94556 1246.82703
1278.0 0.000782 1042.89197 1295.88831
1352.0 0.000740 1042.83948 1354.16663
1409.0 0.000710 1042.78821 1423.04797
1448.0 0.000691 1042.73828 1504.45178
1589.0 0.000629 1042.68945 1600.88391
1740.0 0.000575 1042.64197 1715.21948
1851.0 0.000540 1042.59570 1850.08105
2081.0 0.000481 1042.55066 2006.71167
2177.0 0.000459 1042.50684 2183.35278
2480.0 0.000403 1042.46423 2373.48730
2635.0 0.000380 1042.42297 2564.49878
2825.0 0.000354 1042.38293 2733.81323
2923.0 0.0003421 1042.34412 2865.14355
3025.0 0.0003306 1042.30652 2929.84399
2970.0 0.0003367 1042.27026 2907.68652
2817.0 0.000355 1042.23535 2791.57300
2531.0 0.000395 1042.20154 2594.49097
2266.0 0.000441 1042.16907 2346.92603
1993.0 0.000502 1042.13794 2084.61108
1802.0 0.000555 1042.10803 1837.28003
1616.0 0.000619 1042.07935 1624.17603
1445.0 0.000692 1042.05200 1454.07617
1343.0 0.000745 1042.02588 1327.24390
1256.0 0.000796 1042.00110 1238.25330
1191.0 0.000840 1041.97766 1178.96313
1178.0 0.000849 1041.95544 1140.95642
1147.0 0.000872 1041.93457 1117.05688
1107.0 0.000903 1041.91492 1101.92029
1062.0 0.000942 1041.89661 1091.97314
1041.0 0.000961 1041.87952 1085.02795
1087.0 0.000920 1041.86377 1079.83789
1070.0 0.000935 1041.84937 1075.72522
1067.0 0.000937 1041.83618 1072.32788
1072.0 0.000933 1041.82434 1069.44678
1049.0 0.000953 1041.81384 1066.96436
1085.0 0.000922 1041.80469 1064.80359
1049.0 0.000953 1041.79675 1062.90906
1046.0 0.000956 1041.79016 1061.23853
1062.0 0.000942 1041.78491 1059.75806
1058.0 0.000945 1041.78088 1058.44019
1056.0 0.000947 1041.77820 1057.26245
1072.0 0.000933 1041.77686 1056.20593
1052.0 0.000951 1041.77686 1055.25488
1057.0 0.000946 1041.77820 1054.39624
1043.0 0.000959 1041.78076 1053.61841
1065.0 0.000939 1041.78467 1052.91211
996.0 0.001004 1041.78992 1052.26929
1057.0 0.000946 1041.79651 1051.68274
1053.0 0.000950 1041.80432 1051.14636
1081.0 0.000925 1041.81348 1050.65515
1031.0 0.000970 1041.82410 1050.20447
1024.0 0.000977 1041.83582 1049.79016
1013.0 0.000987 1041.84900 1049.40894
1051.0 0.000951 1041.86353 1049.05774
1024.0 0.000977 1041.87927 1048.73364
1021.0 0.000979 1041.89648 1048.43457
1049.0 0.000953 1041.91492 1048.15808
1048.0 0.000954 1041.93469 1047.90247
1054.0 0.000949 1041.95569 1047.66602
994.0 0.001006 1041.97815 1047.44727
1035.0 0.000966 1042.00183 1047.24475
1036.0 0.000965 1042.02686 1047.05725
1026.0 0.000975 1042.05322 1046.88379
1046.0 0.000956 1042.08093 1046.72339
1072.0 0.000933 1042.10999 1046.57507
1027.0 0.000974 1042.14038 1046.43811
1019.0 0.000981 1042.17200 1046.31165
1045.0 0.000957 1042.20496 1046.19507
1034.0 0.000967 1042.23926 1046.08777
1047.0 0.000955 1042.27490 1045.98926
1018.0 0.000982 1042.31177 1045.89880
1029.0 0.000972 1042.35010 1045.81641
1029.0 0.000972 1042.38965 1045.74109
1054.0 0.000949 1042.43042 1045.67261
1048.0 0.000954 1042.47266 1045.61096
1055.0 0.000948 1042.51624 1047.87915
1074.0 0.000931 1042.56104 1047.87183
1045.0 0.000957 1042.60706 1047.87109
1007.0 0.000993 1042.65454 1047.87708
1031.0 0.000970 1042.70325 1047.88940
1091.0 0.000917 1042.75342 1047.90820
1019.0 0.000981 1042.80469 1047.93262
1064.0 0.000940 1042.85742 1048.98926
1046.0 0.000956 1042.91138 1049.03333
1010.0 0.000990 1042.96655 1049.08313
1045.0 0.000957 1043.02319 1049.13879
1071.0 0.000934 1043.08105 1049.20007
1057.0 0.000946 1043.14026 1049.26660
1048.0 0.000954 1043.20068 1049.33875
1068.0 0.000936 1043.26245 1049.41626
1040.0 0.000962 1043.32544 1049.49902
1057.0 0.000946 1043.38977 1049.58728
1057.0 0.000946 1043.45544 1049.68091
1073.0 0.000932 1043.52234 1049.77979
1033.0 0.000968 1043.59045 1049.88379
1032.0 0.000969 1043.66003 1049.99341
1019.0 0.000981 1043.73071 1050.10840
1047.0 0.000955 1043.80273 1050.22876
1032.0 0.000969 1043.87610 1050.35474
1052.0 0.000951 1043.95068 1050.48596
1082.0 0.000924 1044.02649 1050.62305
1027.0 0.000974 1044.10364 1050.76563
1082.0 0.000924 1044.18201 1050.91418
1053.0 0.000950 1044.26160 1051.06836
1042.0 0.000960 1044.34253 1051.22876
1024.0 0.000977 1044.42468 1051.39502
1032.0 0.000969 1044.50818 1051.56799
1064.0 0.000940 1044.59290 1051.74695
1007.0 0.000993 1044.67871 1051.93274
1030.0 0.000971 1044.76587 1052.12524
1054.0 0.000949 1044.85437 1052.32495
1050.0 0.000952 1044.94397 1052.53162
1045.0 0.000957 1045.03491 1052.74573
1076.0 0.000929 1045.12708 1052.96777
1050.0 0.000952 1045.22046 1053.19775
1018.0 0.000982 1045.31506 1053.43591
1036.0 0.000965 1045.41089 1053.68286
1046.0 0.000956 1045.50793 1053.93872
1065.0 0.000939 1045.60620 1054.20410
1040.0 0.000962 1045.70569 1054.47913
1045.0 0.000957 1045.80640 1054.76440
1025.0 0.000976 1045.90833 1055.06067
1040.0 0.000962 1046.01147 1055.36804
1038.0 0.000963 1046.11584 1055.68738
1040.0 0.000962 1046.22144 1056.01917
1026.0 0.000975 1046.32813 1056.36414
1038.0 0.000963 1046.43604 1055.79602
1079.0 0.000927 1046.54517 1056.18591
1085.0 0.000922 1046.65552 1056.59094
1069.0 0.000935 1046.76697 1057.01196
1067.0 0.000937 1046.87964 1057.45032
1066.0 0.000938 1046.99353 1057.90723
1041.0 0.000961 1047.10864 1058.38367
1034.0 0.000967 1047.22473 1058.88110
1062.0 0.000942 1047.34216 1059.40137
1037.0 0.000964 1047.46069 1059.94580
1045.0 0.000957 1047.58044 1060.51636
1009.0 0.000991 1047.70129 1061.11499
1097.0 0.000912 1047.82324 1061.74402
1051.0 0.000951 1047.94641 1062.40601
1032.0 0.000969 1048.07068 1063.10364
1029.0 0.000972 1048.19604 1063.83984
1065.0 0.000939 1048.32263 1064.61841
1076.0 0.000929 1048.45032 1065.44299
1041.0 0.000961 1048.57910 1066.31787
1047.0 0.000955 1048.70911 1067.24792
1052.0 0.000951 1048.84009 1068.23840
1051.0 0.000951 1048.97229 1069.29590
1039.0 0.000962 1049.10559 1070.42712
1086.0 0.000921 1049.23999 1071.64026
1057.0 0.000946 1049.37549 1072.94421
1071.0 0.000934 1049.51208 1074.34961
1080.0 0.000926 1049.64966 1075.86829
1053.0 0.000950 1049.78845 1077.51453
1045.0 0.000957 1049.92834 1079.30457
1071.0 0.000934 1050.06921 1081.25720
1104.0 0.000906 1050.21130 1083.39490
1056.0 0.000947 1050.35425 1085.74438
1091.0 0.000917 1050.49841 1088.33801
1070.0 0.000935 1050.64368 1091.21631
1058.0 0.000945 1050.78992 1094.43152
1130.0 0.000885 1050.93726 1098.05664
1132.0 0.000883 1051.08557 1102.19812
1145.0 0.000873 1051.23499 1107.02124
1133.0 0.000883 1051.38538 1112.78833
1180.0 0.000847 1051.53674 1119.91614
1205.0 0.000830 1051.68933 1129.05054
1200.0 0.000833 1051.84277 1141.15381
1242.0 0.000805 1051.99731 1157.59082
1238.0 0.000808 1052.15283 1180.19263
1302.0 0.000768 1052.30945 1211.27563
1335.0 0.000749 1052.46692 1253.59998
1369.0 0.000730 1052.62549 1310.26062
1504.0 0.000665 1052.78503 1384.52612
1551.0 0.000645 1052.94556 1479.71167
1738.0 0.000575 1053.10706 1599.22534
1889.0 0.000529 1053.26953 1746.81165
2008.0 0.000498 1053.43311 1926.91833
2246.0 0.000445 1053.59753 2145.12720
2498.0 0.000400 1053.76282 2408.16235
2827.0 0.000354 1053.92920 2723.06519
3305.0 0.0003026 1054.09656 3095.17456
3770.0 0.0002653 1054.26477 3524.62891
4249.0 0.0002353 1054.43396 4001.92749
4841.0 0.0002066 1054.60400 4503.57764
5472.0 0.0001827 1054.77515 4989.70703
5814.0 0.0001720 1054.94714 5405.30908
6112.0 0.0001636 1055.12000 5686.31592
6039.0 0.0001656 1055.29382 5771.32178
5684.0 0.0001759 1055.46851 5620.22559
5435.0 0.0001840 1055.64417 5236.59033
4750.0 0.0002105 1055.82068 4676.60791
4056.0 0.0002465 1055.99817 4028.64355
3399.0 0.0002942 1056.17639 3379.40771
2837.0 0.000352 1056.35559 2793.01709
2342.0 0.000427 1056.53564 2305.94995
1936.0 0.000517 1056.71667 1929.88062
1701.0 0.000588 1056.89844 1657.92627
1490.0 0.000671 1057.08118 1472.28357
1368.0 0.000731 1057.26465 1351.38171
1319.0 0.000758 1057.44897 1275.06921
1253.0 0.000798 1057.63416 1227.31665
1236.0 0.000809 1057.82031 1196.82751
1181.0 0.000847 1058.00720 1176.38770
1125.0 0.000889 1058.19482 1161.74854
1155.0 0.000866 1058.38342 1150.55603
1063.0 0.000941 1058.57275 1141.55029
1101.0 0.000908 1058.76294 1134.05505
1112.0 0.000899 1058.95386 1127.68774
1104.0 0.000906 1059.14563 1122.21118
1079.0 0.000927 1059.33813 1117.46326
1106.0 0.000904 1059.53149 1113.32288
1082.0 0.000924 1059.72559 1109.69556
1096.0 0.000912 1059.92053 1106.50525
1093.0 0.000915 1060.11621 1103.68945
1102.0 0.000907 1060.31262 1101.19653
1099.0 0.000910 1060.50977 1098.98389
1065.0 0.000939 1060.70776 1097.01526
1055.0 0.000948 1060.90649 1095.26038
1107.0 0.000903 1061.10583 1093.69324
1061.0 0.000943 1061.30603 1092.29224
1085.0 0.000922 1061.50696 1091.03870
1068.0 0.000936 1061.70850 1089.91589
1050.0 0.000952 1061.91089 1088.91064
1056.0 0.000947 1062.11389 1088.01013
1077.0 0.000929 1062.31763 1087.20410
1071.0 0.000934 1062.52209 1086.48352
1066.0 0.000938 1062.72729 1085.84021
1057.0 0.000946 1062.93311 1085.26697
1115.0 0.000897 1063.13953 1084.75757
1063.0 0.000941 1063.34680 1084.30701
1040.0 0.000962 1063.55469 1083.90967
1058.0 0.000945 1063.76306 1083.56140
1042.0 0.000960 1063.97229 1083.25867
1043.0 0.000959 1064.18213 1082.99780
1034.0 0.000967 1064.39258 1082.77563
1054.0 0.000949 1064.60376 1082.58972
1032.0 0.000969 1064.81543 1082.43726
1095.0 0.000913 1065.02783 1082.31616
1065.0 0.000939 1065.24084 1082.22461
1071.0 0.000934 1065.45447 1082.16052
1043.0 0.000959 1065.66870 1082.12244
1061.0 0.000943 1065.88342 1082.10876
1059.0 0.000944 1066.09888 1082.11853
1052.0 0.000951 1066.31494 1082.15039
1099.0 0.000910 1066.53149 1082.20313
1058.0 0.000945 1066.74878 1082.27612
1075.0 0.000930 1066.96643 1082.36816
1054.0 0.000949 1067.18481 1082.47900
1039.0 0.000962 1067.40369 1082.60754
1033.0 0.000968 1067.62305 1082.75330
1070.0 0.000935 1067.84314 1082.91589
1091.0 0.000917 1068.06360 1083.09473
1053.0 0.000950 1068.28467 1083.28943
1065.0 0.000939 1068.50635 1083.49976
1069.0 0.000935 1068.72839 1083.72534
1066.0 0.000938 1068.95105 1083.96594
1080.0 0.000926 1069.17419 1084.22156
1066.0 0.000938 1069.39783 1084.49194
1053.0 0.000950 1069.62207 1084.77722
1065.0 0.000939 1069.84668 1085.07690
1085.0 0.000922 1070.07190 1085.39148
1071.0 0.000934 1070.29749 1085.72083
1073.0 0.000932 1070.52356 1086.06506
1067.0 0.000937 1070.75024 1086.42444
1096.0 0.000912 1070.97717 1086.79883
1023.0 0.000978 1071.20471 1087.18884
1052.0 0.000951 1071.43262 1087.59473
1079.0 0.000927 1071.66101 1088.01660
1076.0 0.000929 1071.88989 1088.45532
1087.0 0.000920 1072.11914 1088.91077
1059.0 0.000944 1072.34888 1089.38391
1057.0 0.000946 1072.57898 1089.87500
1088.0 0.000919 1072.80957 1090.38489
1101.0 0.000908 1073.04053 1090.91418
1061.0 0.000943 1073.27185 1091.46350
1089.0 0.000918 1073.50366 1092.03394
1087.0 0.000920 1073.73584 1092.62622
1082.0 0.000924 1073.96826 1093.24133
1087.0 0.000920 1074.20129 1093.88062
1078.0 0.000928 1074.43457 1094.54504
1053.0 0.000950 1074.66821 1095.23596
1068.0 0.000936 1074.90222 1095.95496
1141.0 0.000876 1075.13660 1096.70325
1096.0 0.000912 1075.37134 1097.48291
1116.0 0.000896 1075.60632 1098.29541
1057.0 0.000946 1075.84180 1099.14319
1096.0 0.000912 1076.07751 1100.02808
1103.0 0.000907 1076.31360 1100.95276
1077.0 0.000929 1076.55005 1101.91992
1038.0 0.000963 1076.78674 1102.93213
1061.0 0.000943 1077.02368 1103.99280
1120.0 0.000893 1077.26099 1105.10535
1079.0 0.000927 1077.49866 1106.27380
1059.0 0.000944 1077.73657 1107.50232
1108.0 0.000903 1077.97473 1108.79541
1097.0 0.000912 1078.21326 1110.26831
1098.0 0.000911 1078.45190 1111.70801
1095.0 0.000913 1078.69092 1113.22974
1082.0 0.000924 1078.93018 1114.84058
1102.0 0.000907 1079.16968 1116.54822
1090.0 0.000917 1079.40955 1116.13574
1111.0 0.000900 1079.64954 1118.10339
1111.0 0.000900 1079.88977 1120.19690
1065.0 0.000939 1080.13025 1122.42847
1107.0 0.000903 1080.37109 1124.81238
1107.0 0.000903 1080.61194 1127.36462
1111.0 0.000900 1080.85315 1130.10327
1116.0 0.000896 1081.09448 1133.04895
1150.0 0.000870 1081.33606 1136.22522
1150.0 0.000870 1081.57776 1139.65942
1132.0 0.000883 1081.81970 1143.38257
1131.0 0.000884 1082.06189 1147.43115
1162.0 0.000861 1082.30420 1151.84692
1160.0 0.000862 1082.54675 1156.67944
1192.0 0.000839 1082.78931 1161.98608
1200.0 0.000833 1083.03223 1167.83630
1174.0 0.000852 1083.27515 1174.31250
1237.0 0.000808 1083.51831 1181.51709
1213.0 0.000824 1083.76160 1189.57947
1225.0 0.000816 1084.00513 1198.67358
1242.0 0.000805 1084.24866 1209.04590
1236.0 0.000809 1084.49231 1221.06726
1261.0 0.000793 1084.73621 1235.31677
1354.0 0.000739 1084.98010 1252.71094
1371.0 0.000729 1085.22412 1274.68665
1455.0 0.000687 1085.46826 1303.42822
1476.0 0.000678 1085.71252 1342.12207
1539.0 0.000650 1085.95691 1395.19653
1661.0 0.000602 1086.20129 1468.49487
1833.0 0.000546 1086.44592 1569.34070
1957.0 0.000511 1086.69055 1706.45972
2114.0 0.000473 1086.93518 1889.76379
2327.0 0.000430 1087.17993 2130.07861
2647.0 0.000378 1087.42468 2439.09253
3001.0 0.0003332 1087.66968 2829.75488
3442.0 0.0002905 1087.91455 3316.61011
4052.0 0.0002468 1088.15955 3915.49438
4713.0 0.0002122 1088.40454 4642.21924
5610.0 0.0001783 1088.64966 5508.29004
6675.0 0.0001498 1088.89465 6513.40234
7792.0 0.0001283 1089.13977 7636.02246
9126.0 0.0001096 1089.38501 8823.52637
10455.0 0.0000956 1089.63013 9986.60059
11559.0 0.0000865 1089.87524 11001.11719
12045.0 0.0000830 1090.12048 11720.32227
12052.0 0.0000830 1090.36560 11999.61816
11667.0 0.0000857 1090.61084 11737.53223
10682.0 0.0000936 1090.85596 10928.10254
9479.0 0.0001055 1091.10107 9687.93750
7894.0 0.0001267 1091.34619 8216.03223
6591.0 0.0001517 1091.59131 6715.32813
5283.0 0.0001893 1091.83630 5340.03418
4228.0 0.0002365 1092.08142 4181.50439
3340.0 0.0002994 1092.32642 3273.81689
2633.0 0.000380 1092.57129 2607.21265
2244.0 0.000446 1092.81616 2144.81274
1889.0 0.000529 1093.06104 1838.80579
1708.0 0.000585 1093.30579 1642.76746
1558.0 0.000642 1093.55042 1518.62268
1481.0 0.000675 1093.79517 1438.79016
1425.0 0.000702 1094.03967 1385.19214
1378.0 0.000726 1094.28418 1346.91504
1303.0 0.000767 1094.52856 1317.77563
1266.0 0.000790 1094.77283 1294.40576
1316.0 0.000760 1095.01697 1274.97900
1267.0 0.000789 1095.26111 1258.46436
1284.0 0.000779 1095.50513 1244.23047
1271.0 0.000787 1095.74902 1231.85095
1255.0 0.000797 1095.99280 1221.01294
1211.0 0.000826 1096.23645 1211.47327
1250.0 0.000800 1096.47998 1203.03711
1249.0 0.000801 1096.72339 1195.54504
1220.0 0.000820 1096.96667 1188.86584
1214.0 0.000824 1097.20972 1182.89001
1190.0 0.000840 1097.45276 1177.52576
1215.0 0.000823 1097.69556 1172.69568
1208.0 0.000828 1097.93823 1168.33459
1224.0 0.000817 1098.18079 1164.38647
1207.0 0.000829 1098.42322 1160.80359
1156.0 0.000865 1098.66541 1157.54492
1221.0 0.000819 1098.90747 1154.57483
1236.0 0.000809 1099.14929 1151.86267
1207.0 0.000829 1099.39099 1149.38159
1203.0 0.000831 1099.63245 1147.10815
1200.0 0.000833 1099.87378 1145.02209
1181.0 0.000847 1100.11487 1143.10498
1218.0 0.000821 1100.35583 1141.34119
1209.0 0.000827 1100.59656 1139.71643
1217.0 0.000822 1100.83704 1138.21838
1215.0 0.000823 1101.07727 1136.83569
1198.0 0.000835 1101.31738 1135.55859
1193.0 0.000838 1101.55725 1134.37805
1244.0 0.000804 1101.79688 1133.28625
1203.0 0.000831 1102.03625 1132.27576
1223.0 0.000818 1102.27551 1131.34058
1256.0 0.000796 1102.51440 1130.47437
1214.0 0.000824 1102.75317 1129.67224
1244.0 0.000804 1102.99158 1128.92920
1213.0 0.000824 1103.22974 1128.24097
1266.0 0.000790 1103.46777 1127.60364
1233.0 0.000811 1103.70544 1127.01355
1207.0 0.000829 1103.94287 1126.46753
1234.0 0.000810 1104.18005 1125.96240
1191.0 0.000840 1104.41699 1125.49573
1223.0 0.000818 1104.65369 1125.06482
1240.0 0.000806 1104.89001 1124.66724
1241.0 0.000806 1105.12610 1124.30115
1219.0 0.000820 1105.36194 1123.96448
1222.0 0.000818 1105.59741 1123.65527
1275.0 0.000784 1105.83264 1123.37207
1276.0 0.000784 1106.06763 1123.11328
1226.0 0.000816 1106.30212 1122.87744
1226.0 0.000816 1106.53650 1122.66357
1208.0 0.000828 1106.77051 1122.46985
1217.0 0.000822 1107.00415 1122.29578
1217.0 0.000822 1107.23755 1122.14001
1207.0 0.000829 1107.47070 1122.00171
1228.0 0.000814 1107.70337 1121.87988
1242.0 0.000805 1107.93579 1121.77380
1195.0 0.000837 1108.16797 1121.68274
1205.0 0.000830 1108.39978 1121.60596
1259.0 0.000794 1108.63110 1121.54260
1202.0 0.000832 1108.86218 1121.49231
1166.0 0.000858 1109.09290 1121.45447
1214.0 0.000824 1109.32336 1121.42871
1169.0 0.000855 1109.55334 1121.41431
1190.0 0.000840 1109.78308 1121.41089
1185.0 0.000844 1110.01245 1121.41833
1180.0 0.000847 1110.24133 1121.43579
1170.0 0.000855 1110.46997 1121.46338
1165.0 0.000858 1110.69824 1121.50049
1177.0 0.000850 1110.92615 1121.54724
1166.0 0.000858 1111.15356 1121.60303
1129.0 0.000886 1111.38074 1121.66797
1114.0 0.000898 1111.60742 1121.74158
1163.0 0.000860 1111.83386 1121.82397
1149.0 0.000870 1112.05981 1121.91504
1165.0 0.000858 1112.28540 1122.01465
1161.0 0.000861 1112.51062 1122.12280
1127.0 0.000887 1112.73535 1122.23938
1135.0 0.000881 1112.95972 1122.36462
1120.0 0.000893 1113.18372 1122.49854
1158.0 0.000864 1113.40735 1122.64124
1146.0 0.000873 1113.63049 1122.79297
1114.0 0.000898 1113.85327 1122.95386
1163.0 0.000860 1114.07556 1123.12427
1155.0 0.000866 1114.29749 1123.30457
1160.0 0.000862 1114.51904 1123.49512
1180.0 0.000847 1114.74011 1123.69629
1130.0 0.000885 1114.96069 1123.90881
1144.0 0.000874 1115.18103 1124.13367
1129.0 0.000886 1115.40076 1124.37109
1126.0 0.000888 1115.62012 1124.62231
1139.0 0.000878 1115.83899 1124.88831
1131.0 0.000884 1116.05750 1125.17041
1137.0 0.000880 1116.27563 1125.47034
1080.0 0.000926 1116.49316 1125.78931
1113.0 0.000898 1116.71033 1126.12964
1111.0 0.000900 1116.92700 1126.49341
1144.0 0.000874 1117.14331 1126.88379
1107.0 0.000903 1117.35901 1127.30371
1092.0 0.000916 1117.57434 1127.75696
1109.0 0.000902 1117.78918 1128.24854
1136.0 0.000880 1118.00366 1128.78381
1118.0 0.000894 1118.21753 1129.36975
1121.0 0.000892 1118.43103 1130.01563
1125.0 0.000889 1118.64404 1130.73352
1134.0 0.000882 1118.85657 1131.54138
1090.0 0.000917 1119.06860 1132.46558
1072.0 0.000933 1119.28015 1133.54871
1124.0 0.000890 1119.49133 1134.85754
1116.0 0.000896 1119.70190 1136.49658
1121.0 0.000892 1119.91199 1138.62427
1070.0 0.000935 1120.12158 1141.47131
1130.0 0.000885 1120.33069 1145.35852
1106.0 0.000904 1120.53943 1150.71130
1139.0 0.000878 1120.74756 1158.06750
1154.0 0.000867 1120.95520 1168.08020
1143.0 0.000875 1121.16235 1181.50879
1190.0 0.000840 1121.36902 1199.20679
1200.0 0.000833 1121.57520 1222.11194
1278.0 0.000782 1121.78076 1251.24243
1269.0 0.000788 1121.98596 1287.63794
1303.0 0.000767 1122.19055 1332.19556
1375.0 0.000727 1122.39478 1385.40344
1385.0 0.000722 1122.59839 1446.87708
1492.0 0.000670 1122.80139 1514.78784
1541.0 0.000649 1123.00403 1585.39490
1623.0 0.000616 1123.20605 1652.81714
1691.0 0.000591 1123.40759 1709.37866
1725.0 0.000580 1123.60864 1746.24695
1696.0 0.000590 1123.80908 1755.47192
1666.0 0.000600 1124.00903 1732.40295
1575.0 0.000635 1124.20850 1678.68750
1508.0 0.000663 1124.40747 1602.83936
1417.0 0.000706 1124.60583 1516.87451
1341.0 0.000746 1124.80371 1431.90649
1323.0 0.000756 1125.00098 1355.82336
1245.0 0.000803 1125.19775 1292.92969
1228.0 0.000814 1125.39392 1244.44019
1166.0 0.000858 1125.58972 1209.31824
1136.0 0.000880 1125.78479 1185.23242
1124.0 0.000890 1125.97949 1169.43115
1079.0 0.000927 1126.17346 1159.36304
1076.0 0.000929 1126.36707 1153.00000
1116.0 0.000896 1126.56006 1148.90503
1151.0 0.000869 1126.75244 1146.15222
1144.0 0.000874 1126.94434 1144.18933
1106.0 0.000904 1127.13562 1142.70508
1103.0 0.000907 1127.32642 1141.52954
1109.0 0.000902 1127.51660 1140.57019
1135.0 0.000881 1127.70630 1139.77258
1072.0 0.000933 1127.89539 1139.10352
1120.0 0.000893 1128.08398 1138.53931
1105.0 0.000905 1128.27197 1138.06250
1125.0 0.000889 1128.45935 1137.65967
1136.0 0.000880 1128.64624 1137.31982
1066.0 0.000938 1128.83252 1137.03394
1028.0 0.000973 1129.01819 1136.79443
1102.0 0.000907 1129.20349 1136.59534
1150.0 0.000870 1129.38806 1136.43103
1095.0 0.000913 1129.57214 1136.29749
1081.0 0.000925 1129.75562 1136.19080
1122.0 0.000891 1129.93848 1136.10767
1146.0 0.000873 1130.12073 1136.04553
1135.0 0.000881 1130.30249 1136.00195
1089.0 0.000918 1130.48376 1135.97510
1060.0 0.000943 1130.66431 1135.96277
1075.0 0.000930 1130.84436 1135.96375
1067.0 0.000937 1131.02380 1135.97656
1091.0 0.000917 1131.20276 1136.00012
1099.0 0.000910 1131.38098 1136.03320
1102.0 0.000907 1131.55872 1136.07495
1091.0 0.000917 1131.73584 1136.12488
1103.0 0.000907 1131.91248 1136.18188
1064.0 0.000940 1132.08838 1136.24536
1052.0 0.000951 1132.26379 1136.31482
1141.0 0.000876 1132.43872 1136.38977
1074.0 0.000931 1132.61292 1136.46973
1093.0 0.000915 1132.78650 1136.55396
1142.0 0.000876 1132.95959 1136.64270
1113.0 0.000898 1133.13208 1136.73499
1106.0 0.000904 1133.30408 1136.83130
1099.0 0.000910 1133.47534 1136.93054
1097.0 0.000912 1133.64612 1137.03271
1090.0 0.000917 1133.81628 1137.13794
1065.0 0.000939 1133.98572 1137.24536
1068.0 0.000936 1134.15479 1137.35559
1135.0 0.000881 1134.32312 1137.46777
1074.0 0.000931 1134.49084 1137.58215
1114.0 0.000898 1134.65808 1137.69824
1094.0 0.000914 1134.82471 1137.81641
1111.0 0.000900 1134.99072 1137.93616
1122.0 0.000891 1135.15613 1138.05750
1110.0 0.000901 1135.32104 1138.18030
1097.0 0.000912 1135.48523 1138.30444
1077.0 0.000929 1135.64893 1138.42981
1039.0 0.000962 1135.81189 1138.55652
1082.0 0.000924 1135.97437 1138.68433
1108.0 0.000903 1136.13623 1139.54053
1126.0 0.000888 1136.29761 1139.67810
1106.0 0.000904 1136.45825 1139.81677
1113.0 0.000898 1136.61841 1139.95667
1077.0 0.000929 1136.77783 1140.09729
1086.0 0.000921 1136.93677 1140.23938
1067.0 0.000937 1137.09509 1140.38220
1082.0 0.000924 1137.25281 1140.52625
1078.0 0.000928 1137.40991 1140.67102
1081.0 0.000925 1137.56641 1140.81677
1042.0 0.000960 1137.72241 1140.96399
1075.0 0.000930 1137.87769 1141.11169
1069.0 0.000935 1138.03247 1141.26074
1115.0 0.000897 1138.18665 1141.41089
1100.0 0.000909 1138.34009 1141.56189
1093.0 0.000915 1138.49304 1141.71423
1060.0 0.000943 1138.64551 1141.86768
1068.0 0.000936 1138.79724 1142.02222
1097.0 0.000912 1138.94836 1142.17822
1099.0 0.000910 1139.09900 1142.33557
1077.0 0.000929 1139.24902 1142.49438
1081.0 0.000925 1139.39844 1142.65466
1048.0 0.000954 1139.54712 1142.81653
1121.0 0.000892 1139.69543 1142.98047
1086.0 0.000921 1139.84302 1143.14612
1083.0 0.000923 1139.98999 1143.31372
1117.0 0.000895 1140.13647 1143.48389
1082.0 0.000924 1140.28223 1143.65637
1080.0 0.000926 1140.42749 1143.83179
1059.0 0.000944 1140.57214 1144.01013
1114.0 0.000898 1140.71619 1144.19189
1127.0 0.000887 1140.85974 1144.37744
1090.0 0.000917 1141.00256 1144.56689
1089.0 0.000918 1141.14490 1144.76147
1085.0 0.000922 1141.28650 1144.96069
1101.0 0.000908 1141.42761 1145.16577
1091.0 0.000917 1141.56812 1145.37781
1071.0 0.000934 1141.70813 1145.59753
1097.0 0.000912 1141.84741 1145.82532
1099.0 0.000910 1141.98621 1146.06335
1091.0 0.000917 1142.12427 1146.31250
1090.0 0.000917 1142.26184 1146.57483
1100.0 0.000909 1142.39893 1146.85291
1091.0 0.000917 1142.53528 1147.14941
1103.0 0.000907 1142.67114 1147.46838
1083.0 0.000923 1142.80627 1147.81604
1110.0 0.000901 1142.94092 1148.20142
1073.0 0.000932 1143.07495 1148.63928
1101.0 0.000908 1143.20850 1148.12512
1136.0 0.000880 1143.34131 1148.76025
1143.0 0.000875 1143.47363 1149.56580
1155.0 0.000866 1143.60547 1150.62549
1113.0 0.000898 1143.73657 1152.05627
1112.0 0.000899 1143.86719 1154.01575
1120.0 0.000893 1143.99707 1156.70544
1149.0 0.000870 1144.12646 1160.37378
1122.0 0.000891 1144.25537 1165.31311
1152.0 0.000868 1144.38354 1172.05920
1167.0 0.000857 1144.51123 1180.56274
1156.0 0.000865 1144.63831 1191.38660
1176.0 0.000850 1144.76489 1204.84094
1183.0 0.000845 1144.89087 1221.08740
1242.0 0.000805 1145.01624 1240.00037
1271.0 0.000787 1145.14099 1260.99158
1339.0 0.000747 1145.26526 1282.86157
1286.0 0.000778 1145.38892 1303.74268
1322.0 0.000756 1145.51208 1321.19678
1312.0 0.000762 1145.63452 1332.51147
1337.0 0.000748 1145.75647 1335.24182
1324.0 0.000755 1145.87793 1328.05188
1290.0 0.000775 1145.99866 1311.59460
1290.0 0.000775 1146.11902 1288.59229
1233.0 0.000811 1146.23865 1262.73572
1200.0 0.000833 1146.35779 1237.36755
1194.0 0.000838 1146.47632 1214.82446
1191.0 0.000840 1146.59436 1196.35022
1146.0 0.000873 1146.71179 1182.25208
1157.0 0.000864 1146.82874 1172.16492
1160.0 0.000862 1146.94507 1165.34937
1133.0 0.000883 1147.06079 1160.96033
1126.0 0.000888 1147.17603 1158.23010
1107.0 0.000903 1147.29065 1156.55835
1119.0 0.000894 1147.40479 1155.52734
1153.0 0.000867 1147.51831 1154.87170
1152.0 0.000868 1147.63135 1154.43567
1148.0 0.000871 1147.74377 1154.13245
1107.0 0.000903 1147.85571 1153.91553
1125.0 0.000889 1147.96704 1153.75940
1157.0 0.000864 1148.07788 1153.64966
1114.0 0.000898 1148.18811 1153.57642
1157.0 0.000864 1148.29785 1153.53381
1174.0 0.000852 1148.40698 1153.51685
1142.0 0.000876 1148.51563 1153.52197
1134.0 0.000882 1148.62366 1153.54565
1142.0 0.000876 1148.73120 1153.58594
1122.0 0.000891 1148.83826 1153.64063
1098.0 0.000911 1148.94470 1153.70789
1105.0 0.000905 1149.05066 1153.78650
1131.0 0.000884 1149.15601 1153.87537
1152.0 0.000868 1149.26086 1153.97339
1131.0 0.000884 1149.36523 1154.07996
1110.0 0.000901 1149.46899 1154.19397
1136.0 0.000880 1149.57227 1154.31531
1150.0 0.000870 1149.67505 1154.44348
1115.0 0.000897 1149.77722 1154.57776
1117.0 0.000895 1149.87891 1154.71814
1147.0 0.000872 1149.98010 1154.86426
1098.0 0.000911 1150.08069 1155.01575
1137.0 0.000880 1150.18091 1155.17285
1126.0 0.000888 1150.28040 1155.33496
1123.0 0.000890 1150.37952 1155.50269
1106.0 0.000904 1150.47815 1155.67554
1134.0 0.000882 1150.57617 1155.85327
1134.0 0.000882 1150.67371 1156.03625
1124.0 0.000890 1150.77063 1156.22449
1131.0 0.000884 1150.86719 1156.41809
1122.0 0.000891 1150.96326 1156.61731
1147.0 0.000872 1151.05872 1156.82202
1120.0 0.000893 1151.15369 1157.03223
1140.0 0.000877 1151.24817 1157.24854
1122.0 0.000891 1151.34204 1157.47070
1140.0 0.000877 1151.43555 1157.69946
1124.0 0.000890 1151.52856 1157.93481
1092.0 0.000916 1151.62097 1158.17712
1123.0 0.000890 1151.71289 1158.42651
1130.0 0.000885 1151.80444 1158.68359
1135.0 0.000881 1151.89539 1158.94849
1104.0 0.000906 1151.98584 1159.11316
1136.0 0.000880 1152.07581 1159.39648
1148.0 0.000871 1152.16541 1159.68921
1127.0 0.000887 1152.25439 1159.99182
1136.0 0.000880 1152.34290 1160.73450
1114.0 0.000898 1152.43091 1161.06152
1114.0 0.000898 1152.51843 1161.40027
1137.0 0.000880 1152.60547 1161.75171
1176.0 0.000850 1152.69202 1162.11658
1149.0 0.000870 1152.77820 1162.49597
1130.0 0.000885 1152.86377 1162.89038
1145.0 0.000873 1152.94897 1163.30151
1106.0 0.000904 1153.03357 1163.73010
1099.0 0.000910 1153.11780 1164.17737
1123.0 0.000890 1153.20154 1164.64502
1134.0 0.000882 1153.28479 1165.13464
1132.0 0.000883 1153.36755 1165.64746
1132.0 0.000883 1153.44983 1166.18591
1147.0 0.000872 1153.53174 1166.75171
1167.0 0.000857 1153.61316 1167.34717
1130.0 0.000885 1153.69397 1167.97473
1144.0 0.000874 1153.77454 1168.63745
1116.0 0.000896 1153.85449 1169.33789
1132.0 0.000883 1153.93408 1170.07996
1142.0 0.000876 1154.01318 1170.86731
1133.0 0.000883 1154.09180 1171.70410
1152.0 0.000868 1154.16992 1172.59521
1131.0 0.000884 1154.24768 1173.54590
1172.0 0.000853 1154.32495 1174.56250
1122.0 0.000891 1154.40186 1175.65149
1132.0 0.000883 1154.47815 1176.82056
1149.0 0.000870 1154.55420 1178.07886
1177.0 0.000850 1154.62964 1179.43604
1144.0 0.000874 1154.70471 1180.90356
1134.0 0.000882 1154.77942 1182.49487
1169.0 0.000855 1154.85352 1184.22498
1175.0 0.000851 1154.92737 1186.11133
1163.0 0.000860 1155.00061 1188.17444
1162.0 0.000861 1155.07349 1190.43799
1152.0 0.000868 1155.14600 1192.93054
1166.0 0.000858 1155.21802 1195.68481
1201.0 0.000833 1155.28955 1198.74036
1169.0 0.000855 1155.36084 1202.14551
1212.0 0.000825 1155.43152 1205.95911
1225.0 0.000816 1155.50183 1210.25623
1211.0 0.000826 1155.57178 1215.13782
1194.0 0.000838 1155.64124 1220.74536
1220.0 0.000820 1155.71033 1227.29053
1214.0 0.000824 1155.77905 1235.10168
1266.0 0.000790 1155.84729 1244.69922
1265.0 0.000791 1155.91516 1256.90259
1281.0 0.000781 1155.98254 1272.97571
1328.0 0.000753 1156.04956 1294.80884
1364.0 0.000733 1156.11621 1325.09241
1442.0 0.000693 1156.18237 1367.46509
1474.0 0.000678 1156.24817 1427.03369
1527.0 0.000655 1156.31360 1509.96216
1760.0 0.000568 1156.37866 1623.84680
1913.0 0.000523 1156.44324 1777.40637
2061.0 0.000485 1156.50745 1979.93774
2330.0 0.000429 1156.57129 2240.43872
2720.0 0.000368 1156.63477 2566.15576
3143.0 0.0003182 1156.69775 2959.81445
3579.0 0.0002794 1156.76038 3415.92383
4093.0 0.0002443 1156.82275 3917.69873
4720.0 0.0002119 1156.88452 4434.39844
5174.0 0.0001933 1156.94604 4920.22070
5547.0 0.0001803 1157.00720 5317.53125
5752.0 0.0001739 1157.06799 5563.89697
5766.0 0.0001734 1157.12830 5604.76025
5567.0 0.0001796 1157.18823 5413.62549
4967.0 0.0002013 1157.24792 5011.25635
4433.0 0.0002256 1157.30713 4464.25635
3789.0 0.0002639 1157.36597 3857.77026
3271.0 0.0003057 1157.42456 3266.36816
2737.0 0.000365 1157.48267 2741.05737
2329.0 0.000429 1157.54041 2308.52661
2027.0 0.000493 1157.59778 1975.17017
1780.0 0.000562 1157.65491 1732.90845
1628.0 0.000614 1157.71155 1565.55017
1478.0 0.000677 1157.76782 1454.43811
1430.0 0.000699 1157.82385 1382.41602
1331.0 0.000751 1157.87939 1335.84692
1313.0 0.000762 1157.93469 1305.03271
1292.0 0.000774 1157.98962 1283.67334
1237.0 0.000808 1158.04419 1267.96704
1227.0 0.000815 1158.09839 1255.74121
1219.0 0.000820 1158.15222 1245.79053
1213.0 0.000824 1158.20569 1237.44238
1193.0 0.000838 1158.25891 1230.30310
1238.0 0.000808 1158.31177 1224.12256
1206.0 0.000829 1158.36426 1218.72791
1226.0 0.000816 1158.41638 1213.98877
1222.0 0.000818 1158.46826 1209.80444
1183.0 0.000845 1158.51965 1206.09192
1177.0 0.000850 1158.57080 1202.78455
1181.0 0.000847 1158.62170 1199.82678
1191.0 0.000840 1158.67212 1197.17163
1216.0 0.000822 1158.72229 1194.78040
1164.0 0.000859 1158.77222 1192.62024
1202.0 0.000832 1158.82166 1190.66272
1195.0 0.000837 1158.87085 1188.88391
1227.0 0.000815 1158.91980 1187.26379
1194.0 0.000838 1158.96826 1185.78430
1173.0 0.000853 1159.01648 1184.43005
1212.0 0.000825 1159.06445 1183.18848
1155.0 0.000866 1159.11206 1182.04724
1170.0 0.000855 1159.15930 1180.99634
1180.0 0.000847 1159.20630 1180.02722
1176.0 0.000850 1159.25305 1179.13208
1233.0 0.000811 1159.29944 1178.30347
1240.0 0.000806 1159.34546 1177.53552
1181.0 0.000847 1159.39124 1176.82336
1175.0 0.000851 1159.43665 1176.16150
1197.0 0.000835 1159.48181 1175.54553
1179.0 0.000848 1159.52673 1175.64368
1214.0 0.000824 1159.57129 1175.11365
1205.0 0.000830 1159.61548 1174.61914
1202.0 0.000832 1159.65955 1174.15759
1166.0 0.000858 1159.70313 1173.72644
1196.0 0.000836 1159.74658 1173.32312
1234.0 0.000810 1159.78967 1172.94604
1196.0 0.000836 1159.83252 1172.59314
1176.0 0.000850 1159.87500 1172.26221
1209.0 0.000827 1159.91724 1171.95215
1177.0 0.000850 1159.95923 1171.66162
1175.0 0.000851 1160.00085 1171.38904
1167.0 0.000857 1160.04224 1171.13330
1147.0 0.000872 1160.08337 1170.89343
1136.0 0.000880 1160.12427 1170.66821
1210.0 0.000826 1160.16479 1170.45679
1182.0 0.000846 1160.20508 1170.25842
1171.0 0.000854 1160.24512 1170.07214
1172.0 0.000853 1160.28491 1169.89746
1214.0 0.000824 1160.32434 1169.73340
1182.0 0.000846 1160.36353 1169.57947
1223.0 0.000818 1160.40259 1169.43530
1166.0 0.000858 1160.44116 1169.30005
1168.0 0.000856 1160.47961 1169.17346
1162.0 0.000861 1160.51782 1169.05505
1193.0 0.000838 1160.55566 1168.94409
1175.0 0.000851 1160.59338 1168.84058
1169.0 0.000855 1160.63074 1168.74426
1222.0 0.000818 1160.66785 1168.65430
1209.0 0.000827 1160.70483 1168.57092
1202.0 0.000832 1160.74133 1168.49316
1165.0 0.000858 1160.77771 1168.42151
1177.0 0.000850 1160.81384 1168.35535
1152.0 0.000868 1160.84973 1168.29419
1141.0 0.000876 1160.88538 1168.23828
1198.0 0.000835 1160.92078 1168.18750
1153.0 0.000867 1160.95593 1168.14136
1179.0 0.000848 1160.99084 1168.09985
1195.0 0.000837 1161.02551 1168.06250
1168.0 0.000856 1161.05994 1168.02966
1162.0 0.000861 1161.09412 1168.00110
1129.0 0.000886 1161.12805 1167.97644
1132.0 0.000883 1161.16174 1167.95605
1171.0 0.000854 1161.19531 1167.93970
1171.0 0.000854 1161.22852 1167.92712
1182.0 0.000846 1161.26147 1167.91858
1194.0 0.000838 1161.29431 1167.91406
1160.0 0.000862 1161.32690 1167.91370
1210.0 0.000826 1161.35925 1167.91711
1154.0 0.000867 1161.39136 1167.92493
1163.0 0.000860 1161.42322 1167.93713
1185.0 0.000844 1161.45483 1167.95374
1171.0 0.000854 1161.48633 1167.97559
1199.0 0.000834 1161.51758 1168.00305
1181.0 0.000847 1161.54858 1168.03699
1175.0 0.000851 1161.57935 1168.07849
1198.0 0.000835 1161.60986 1168.13000
1190.0 0.000840 1161.64026 1168.19556
1150.0 0.000870 1161.67041 1168.28040
1184.0 0.000845 1161.70032 1168.39331
1198.0 0.000835 1161.72998 1168.54688
1195.0 0.000837 1161.75952 1168.75793
1170.0 0.000855 1161.78882 1169.04968
1150.0 0.000870 1161.81787 1169.45178
1167.0 0.000857 1161.84680 1169.99902
1168.0 0.000856 1161.87537 1170.73157
1152.0 0.000868 1161.90393 1171.68994
1192.0 0.000839 1161.93213 1172.90881
1192.0 0.000839 1161.96021 1174.40881
1203.0 0.000831 1161.98804 1176.18079
1205.0 0.000830 1162.01575 1178.17236
1179.0 0.000848 1162.04321 1180.27563
1185.0 0.000844 1162.07043 1182.32239
1210.0 0.000826 1162.09753 1184.09241
1172.0 0.000853 1162.12439 1185.33557
1173.0 0.000853 1162.15112 1185.81824
1188.0 0.000842 1162.17761 1185.39502
1209.0 0.000827 1162.20386 1184.09302
1207.0 0.000829 1162.22998 1182.13501
1176.0 0.000850 1162.25586 1179.85083
1192.0 0.000839 1162.28162 1177.55408
1188.0 0.000842 1162.30713 1175.47339
1157.0 0.000864 1162.33252 1173.73962
1165.0 0.000858 1162.35767 1172.39783
1186.0 0.000843 1162.38269 1171.43018
1204.0 0.000831 1162.40747 1170.77808
1198.0 0.000835 1162.43201 1170.36914
1169.0 0.000855 1162.45642 1170.13318
1200.0 0.000833 1162.48071 1170.01245
1210.0 0.000826 1162.50476 1169.96472
1182.0 0.000846 1162.52869 1169.96204
1190.0 0.000840 1162.55237 1169.98755
1213.0 0.000824 1162.57593 1170.03149
1192.0 0.000839 1162.59924 1170.08777
1197.0 0.000835 1162.62244 1170.15417
1210.0 0.000826 1162.64551 1170.22876
1189.0 0.000841 1162.66833 1170.31067
1177.0 0.000850 1162.69092 1170.39893
1175.0 0.000851 1162.71350 1170.49377
1210.0 0.000826 1162.73584 1170.59448
1209.0 0.000827 1162.75793 1170.70068
1166.0 0.000858 1162.77991 1170.81262
1157.0 0.000864 1162.80164 1170.92993
1166.0 0.000858 1162.82336 1171.05286
1173.0 0.000853 1162.84485 1171.18164
1176.0 0.000850 1162.86609 1171.31555
1223.0 0.000818 1162.88733 1171.45557
1186.0 0.000843 1162.90820 1171.60095
1198.0 0.000835 1162.92908 1171.75244
1218.0 0.000821 1162.94971 1171.91003
1223.0 0.000818 1162.97021 1172.07397
1214.0 0.000824 1162.99048 1172.24426
1225.0 0.000816 1163.01074 1172.42163
1193.0 0.000838 1163.03076 1172.60559
1183.0 0.000845 1163.05054 1172.79712
1209.0 0.000827 1163.07019 1172.99622
1182.0 0.000846 1163.08972 1173.20325
1231.0 0.000812 1163.10913 1173.41858
1237.0 0.000808 1163.12830 1173.64270
1211.0 0.000826 1163.14746 1173.87622
1174.0 0.000852 1163.16626 1174.11914
1216.0 0.000822 1163.18506 1174.37244
1169.0 0.000855 1163.20361 1174.63647
1180.0 0.000847 1163.22205 1174.91162
1211.0 0.000826 1163.24036 1175.19897
1193.0 0.000838 1163.25842 1175.49915
1194.0 0.000838 1163.27649 1175.81238
1206.0 0.000829 1163.29431 1176.14014
1215.0 0.000823 1163.31201 1176.48291
1201.0 0.000833 1163.32947 1176.84167
1229.0 0.000814 1163.34692 1177.21790
1212.0 0.000825 1163.36414 1177.61218
1240.0 0.000806 1163.38110 1178.02576
1243.0 0.000805 1163.39807 1178.46057
1230.0 0.000813 1163.41492 1178.91724
1202.0 0.000832 1163.43152 1179.39807
1215.0 0.000823 1163.44800 1179.90442
1193.0 0.000838 1163.46423 1180.43799
1236.0 0.000809 1163.48047 1181.00171
1219.0 0.000820 1163.49646 1181.59656
1221.0 0.000819 1163.51245 1182.22632
1174.0 0.000852 1163.52820 1182.89294
1189.0 0.000841 1163.54370 1183.59973
1224.0 0.000817 1163.55920 1184.35034
1229.0 0.000814 1163.57458 1185.14819
1174.0 0.000852 1163.58972 1185.99731
1190.0 0.000840 1163.60474 1186.90271
1200.0 0.000833 1163.61963 1187.86963
1232.0 0.000812 1163.63428 1188.90332
1257.0 0.000796 1163.64893 1189.18713
1206.0 0.000829 1163.66333 1190.38379
1233.0 0.000811 1163.67773 1191.66968
1247.0 0.000802 1163.69177 1193.05371
1230.0 0.000813 1163.70581 1194.54688
1212.0 0.000825 1163.71973 1196.16125
1245.0 0.000803 1163.73340 1197.91016
1226.0 0.000816 1163.74707 1199.80994
1237.0 0.000808 1163.76050 1201.87854
1236.0 0.000809 1163.77380 1204.13696
1235.0 0.000810 1163.78699 1206.60986
1231.0 0.000812 1163.80005 1209.32532
1223.0 0.000818 1163.81287 1212.31702
1231.0 0.000812 1163.82568 1215.62427
1230.0 0.000813 1163.83826 1219.29370
1233.0 0.000811 1163.85071 1223.38123
1247.0 0.000802 1163.86304 1227.95471
1269.0 0.000788 1163.87524 1233.09851
1221.0 0.000819 1163.88721 1238.92090
1305.0 0.000766 1163.89917 1245.56726
1267.0 0.000789 1163.91089 1253.24463
1305.0 0.000766 1163.92249 1262.26404
1287.0 0.000777 1163.93396 1273.11230
1308.0 0.000765 1163.94531 1286.56543
1375.0 0.000727 1163.95654 1303.85779
1362.0 0.000734 1163.96765 1326.91235
1461.0 0.000684 1163.97852 1358.63623
1538.0 0.000650 1163.98926 1403.26697
1626.0 0.000615 1163.99988 1466.73657
1718.0 0.000582 1164.01038 1556.99854
1831.0 0.000546 1164.02075 1685.58447
1937.0 0.000516 1164.03101 1861.95203
2288.0 0.000437 1164.04102 2100.92114
2567.0 0.000390 1164.05090 2415.53687
2999.0 0.0003334 1164.06079 2815.82520
3535.0 0.0002829 1164.07043 3305.19019
4065.0 0.0002460 1164.07996 3875.74854
4745.0 0.0002107 1164.08923 4503.94238
5442.0 0.0001838 1164.09851 5148.14453
6074.0 0.0001646 1164.10754 5748.65527
6590.0 0.0001517 1164.11646 6231.91504
6737.0 0.0001484 1164.12524 6520.31201
6578.0 0.0001520 1164.13391 6549.31641
6320.0 0.0001582 1164.14233 6293.14307
5649.0 0.0001770 1164.15076 5785.97559
5056.0 0.0001978 1164.15894 5114.36816
4256.0 0.0002350 1164.16699 4381.36084
3607.0 0.0002772 1164.17493 3673.76318
3040.0 0.0003289 1164.18274 3049.44751
2602.0 0.000384 1164.19031 2537.69629
2257.0 0.000443 1164.19788 2144.34741
1905.0 0.000525 1164.20520 1858.78149
1768.0 0.000566 1164.21240 1661.37537
1537.0 0.000651 1164.21936 1529.99414
1501.0 0.000666 1164.22632 1444.48108
1438.0 0.000695 1164.23303 1388.88477
1368.0 0.000731 1164.23962 1351.87537
1354.0 0.000739 1164.24609 1326.08411
1301.0 0.000769 1164.25244 1307.04883
1288.0 0.000776 1164.25854 1292.20618
1256.0 0.000796 1164.26453 1280.12415
1264.0 0.000791 1164.27039 1269.99744
1290.0 0.000775 1164.27612 1261.35107
1247.0 0.000802 1164.28162 1253.88232
1254.0 0.000797 1164.28711 1247.38074
1303.0 0.000767 1164.29224 1241.68848
1247.0 0.000802 1164.29736 1236.68201
1260.0 0.000794 1164.30237 1232.26147
1207.0 0.000829 1164.30713 1228.34509
1252.0 0.000799 1164.31177 1224.86536
1233.0 0.000811 1164.31616 1221.76563
1231.0 0.000812 1164.32056 1218.99829
1247.0 0.000802 1164.32471 1216.52368
1200.0 0.000833 1164.32874 1214.30774
1224.0 0.000817 1164.33252 1212.32153
1202.0 0.000832 1164.33618 1210.54053
1208.0 0.000828 1164.33972 1208.94348
1182.0 0.000846 1164.34314 1207.51233
1200.0 0.000833 1164.34631 1206.23108
1211.0 0.000826 1164.34937 1205.08655
1235.0 0.000810 1164.35217 1204.06653
1204.0 0.000831 1164.35498 1203.16138
1217.0 0.000822 1164.35754 1202.36169
1193.0 0.000838 1164.35986 1201.66003
1215.0 0.000823 1164.36206 1201.04980
1196.0 0.000836 1164.36414 1200.52539
1203.0 0.000831 1164.36597 1200.08167
1260.0 0.000794 1164.36780 1199.71472
1213.0 0.000824 1164.36926 1199.42053
1210.0 0.000826 1164.37073 1199.19666
1190.0 0.000840 1164.37183 1199.04004
1197.0 0.000835 1164.37292 1198.94946
1141.0 0.000876 1164.37378 1198.92261
1179.0 0.000848 1164.37451 1198.95947
1181.0 0.000847 1164.37500 1199.05859
1215.0 0.000823 1164.37537 1199.21997
1242.0 0.000805 1164.37549 1199.44397
1187.0 0.000842 1164.37549 1199.73096
1221.0 0.000819 1164.37537 1200.08240
1209.0 0.000827 1164.37500 1200.49927
1212.0 0.000825 1164.37439 1200.98315
1201.0 0.000833 1164.37378 1201.53687
1211.0 0.000826 1164.37280 1202.16321
1209.0 0.000827 1164.37170 1202.86487
1225.0 0.000816 1164.37048 1203.64636
1201.0 0.000833 1164.36902 1204.51160
1206.0 0.000829 1164.36743 1205.46594
1219.0 0.000820 1164.36560 1206.51550
1198.0 0.000835 1164.36353 1207.66626
1197.0 0.000835 1164.36133 1208.92615
1224.0 0.000817 1164.35901 1210.30420
1234.0 0.000810 1164.35632 1211.80957
1189.0 0.000841 1164.35364 1213.45374
1221.0 0.000819 1164.35059 1215.24963
1232.0 0.000812 1164.34753 1217.21155
1251.0 0.000799 1164.34412 1219.35583
1223.0 0.000818 1164.34058 1221.70190
1183.0 0.000845 1164.33679 1224.27148
1212.0 0.000825 1164.33289 1227.08960
1220.0 0.000820 1164.32874 1230.18518
1256.0 0.000796 1164.32434 1233.59192
1240.0 0.000806 1164.31982 1237.35144
1269.0 0.000788 1164.31506 1241.50464
1250.0 0.000800 1164.31006 1246.10767
1258.0 0.000795 1164.30493 1251.22412
1265.0 0.000791 1164.29956 1256.92969
1281.0 0.000781 1164.29407 1263.31409
1237.0 0.000808 1164.28821 1270.48804
1274.0 0.000785 1164.28223 1278.58826
1320.0 0.000758 1164.27600 1287.78979
1353.0 0.000739 1164.26953 1298.32959
1341.0 0.000746 1164.26294 1310.54456
1350.0 0.000741 1164.25610 1324.94360
1365.0 0.000733 1164.24902 1342.32642
1423.0 0.000703 1164.24170 1363.97620
1486.0 0.000673 1164.23425 1391.94739
1504.0 0.000665 1164.22644 1429.46570
1563.0 0.000640 1164.21851 1481.44397
1721.0 0.000581 1164.21033 1555.09436
1813.0 0.000552 1164.20190 1660.57532
2014.0 0.000497 1164.19336 1811.55786
2302.0 0.000434 1164.18445 2025.48645
2588.0 0.000386 1164.17542 2323.14819
3032.0 0.0003298 1164.16602 2726.99609
3491.0 0.0002865 1164.15649 3257.74365
4218.0 0.0002371 1164.14673 3929.31079
5043.0 0.0001983 1164.13660 4742.61816
6041.0 0.0001655 1164.12646 5678.04785
7058.0 0.0001417 1164.11584 6688.13965
8092.0 0.0001236 1164.10522 7695.55176
9114.0 0.0001097 1164.09424 8596.79590
9738.0 0.0001027 1164.08301 9270.73242
9852.0 0.0001015 1164.07153 9598.01367
9566.0 0.0001045 1164.05981 9494.06543
8997.0 0.0001111 1164.04785 8949.89258
8011.0 0.0001248 1164.03564 8052.59521
6904.0 0.0001448 1164.02319 6953.85059
5849.0 0.0001710 1164.01050 5809.86377
4712.0 0.0002122 1163.99744 4741.25342
3897.0 0.0002566 1163.98425 3822.41211
3263.0 0.0003065 1163.97083 3085.55542
2745.0 0.000364 1163.95703 2529.92749
2269.0 0.000441 1163.94299 2133.11377
1936.0 0.000517 1163.92883 1862.33130
1785.0 0.000560 1163.91431 1683.58643
1582.0 0.000632 1163.89941 1567.45068
1493.0 0.000670 1163.88440 1491.48547
1476.0 0.000678 1163.86914 1440.21375
1412.0 0.000708 1163.85352 1403.80225
1364.0 0.000733 1163.83765 1376.40161
1343.0 0.000745 1163.82153 1354.68591
1331.0 0.000751 1163.80505 1336.79858
1313.0 0.000762 1163.78845 1321.68408
1292.0 0.000774 1163.77148 1308.70557
1271.0 0.000787 1163.75415 1297.44580
1265.0 0.000791 1163.73669 1287.60767
1255.0 0.000797 1163.71887 1278.96411
1325.0 0.000755 1163.70068 1271.33594
1290.0 0.000775 1163.68237 1264.57739
1233.0 0.000811 1163.66370 1258.56848
1250.0 0.000800 1163.64478 1253.21008
1253.0 0.000798 1163.62549 1248.41833
1240.0 0.000806 1163.60596 1244.12366
1257.0 0.000796 1163.58606 1240.26648
1231.0 0.000812 1163.56592 1236.79724
1210.0 0.000826 1163.54553 1233.67261
1212.0 0.000825 1163.52466 1230.85583
1206.0 0.000829 1163.50366 1228.31567
1205.0 0.000830 1163.48230 1226.02515
1230.0 0.000813 1163.46069 1223.96069
1215.0 0.000823 1163.43872 1222.10217
1190.0 0.000840 1163.41638 1220.43188
1160.0 0.000862 1163.39380 1218.93481
1198.0 0.000835 1163.37085 1217.59729
1229.0 0.000814 1163.34766 1216.40881
1228.0 0.000814 1163.32410 1215.35901
1201.0 0.000833 1163.30029 1214.43896
1183.0 0.000845 1163.27612 1213.64209
1168.0 0.000856 1163.25159 1212.96204
1185.0 0.000844 1163.22681 1212.39368
1186.0 0.000843 1163.20154 1211.93225
1221.0 0.000819 1163.17603 1211.57507
1232.0 0.000812 1163.15027 1211.31909
1213.0 0.000824 1163.12415 1211.16235
1216.0 0.000822 1163.09766 1211.10400
1192.0 0.000839 1163.07080 1211.14307
1183.0 0.000845 1163.04358 1211.27991
1183.0 0.000845 1163.01611 1211.51538
1179.0 0.000848 1162.98828 1211.85120
1197.0 0.000835 1162.96008 1212.28967
1215.0 0.000823 1162.93152 1212.83337
1196.0 0.000836 1162.90259 1213.48645
1171.0 0.000854 1162.87341 1214.25366
1196.0 0.000836 1162.84375 1215.14001
1216.0 0.000822 1162.81384 1216.15247
1206.0 0.000829 1162.78345 1217.29871
1221.0 0.000819 1162.75281 1218.58728
1222.0 0.000818 1162.72180 1220.02881
1204.0 0.000831 1162.69043 1221.63440
1202.0 0.000832 1162.65857 1223.41833
1206.0 0.000829 1162.62646 1225.39563
1205.0 0.000830 1162.59399 1227.58423
1196.0 0.000836 1162.56116 1230.00488
1234.0 0.000810 1162.52783 1232.68042
1272.0 0.000786 1162.49426 1235.63879
1255.0 0.000797 1162.46021 1238.91113
1213.0 0.000824 1162.42590 1242.53394
1233.0 0.000811 1162.39111 1246.54944
1240.0 0.000806 1162.35596 1251.00720
1256.0 0.000796 1162.32043 1255.96521
1286.0 0.000778 1162.28455 1261.49219
1281.0 0.000781 1162.24817 1267.66809
1255.0 0.000797 1162.21143 1274.86230
1287.0 0.000777 1162.17432 1282.64978
1255.0 0.000797 1162.13684 1291.44275
1277.0 0.000783 1162.09900 1301.42017
1267.0 0.000789 1162.06067 1312.81604
1369.0 0.000730 1162.02197 1325.95068
1326.0 0.000754 1161.98279 1341.28845
1359.0 0.000736 1161.94336 1359.53918
1389.0 0.000720 1161.90344 1381.82312
1462.0 0.000684 1161.86304 1409.93457
1458.0 0.000686 1161.82227 1446.72498
1581.0 0.000633 1161.78113 1496.63086
1674.0 0.000597 1161.73950 1566.33813
1850.0 0.000541 1161.69751 1665.54480
1972.0 0.000507 1161.65515 1807.70984
2285.0 0.000438 1161.61230 2010.57690
2490.0 0.000402 1161.56897 2296.10352
2943.0 0.0003398 1161.52527 2689.22900
3522.0 0.0002839 1161.48108 3214.81274
4234.0 0.0002362 1161.43652 3892.41162
5013.0 0.0001995 1161.39148 4729.41553
6228.0 0.0001606 1161.34607 5713.42871
7397.0 0.0001352 1161.30017 6804.42920
8655.0 0.0001155 1161.25378 7929.73145
9746.0 0.0001026 1161.20703 8985.84863
10501.0 0.0000952 1161.15979 9846.04785
10954.0 0.0000913 1161.11206 10375.77246
10797.0 0.0000926 1161.06396 10462.62207
10300.0 0.0000971 1161.01538 10059.83008
9465.0 0.0001057 1160.96631 9222.17480
8155.0 0.0001226 1160.91675 8093.97949
6898.0 0.0001450 1160.86682 6849.21875
5699.0 0.0001755 1160.81641 5636.05664
4657.0 0.0002147 1160.76550 4554.84619
3754.0 0.0002664 1160.71411 3658.41553
3055.0 0.0003273 1160.66235 2960.35425
2562.0 0.000390 1160.60999 2446.13062
2135.0 0.000468 1160.55713 2085.02979
1889.0 0.000529 1160.50391 1840.82520
1774.0 0.000564 1160.45020 1679.48047
1602.0 0.000624 1160.39600 1573.30554
1472.0 0.000679 1160.34131 1502.09741
1393.0 0.000718 1160.28601 1452.36072
1393.0 0.000718 1160.23035 1415.70837
1363.0 0.000734 1160.17419 1387.20520
1361.0 0.000735 1160.11755 1364.04077
1314.0 0.000761 1160.06030 1344.61743
1274.0 0.000785 1160.00269 1327.99561
1284.0 0.000779 1159.94458 1313.58215
1272.0 0.000786 1159.88586 1300.97070
1274.0 0.000785 1159.82666 1289.86157
1249.0 0.000801 1159.76697 1280.02161
1270.0 0.000787 1159.70679 1271.26343
1234.0 0.000810 1159.64612 1263.43323
1221.0 0.000819 1159.58496 1256.40430
1233.0 0.000811 1159.52319 1250.06995
1166.0 0.000858 1159.46094 1244.34070
1244.0 0.000804 1159.39819 1239.14209
1212.0 0.000825 1159.33484 1234.40930
1179.0 0.000848 1159.27100 1230.08765
1197.0 0.000835 1159.20667 1226.13037
1159.0 0.000863 1159.14185 1222.49670
1210.0 0.000826 1159.07642 1219.15149
1196.0 0.000836 1159.01050 1216.06470
1194.0 0.000838 1158.94397 1213.20947
1180.0 0.000847 1158.87695 1210.56287
1174.0 0.000852 1158.80933 1208.10388
1154.0 0.000867 1158.74133 1205.81531
1152.0 0.000868 1158.67261 1203.68066
1186.0 0.000843 1158.60339 1201.68604
1116.0 0.000896 1158.53369 1199.81921
1148.0 0.000871 1158.46326 1198.06848
1147.0 0.000872 1158.39246 1196.42444
1209.0 0.000827 1158.32104 1194.87781
1168.0 0.000856 1158.24902 1193.42102
1174.0 0.000852 1158.17651 1192.32849
1197.0 0.000835 1158.10327 1191.03125
1167.0 0.000857 1158.02966 1189.80396
1188.0 0.000842 1157.95544 1188.64148
1179.0 0.000848 1157.88049 1187.53882
1141.0 0.000876 1157.80518 1186.49158
1116.0 0.000896 1157.72913 1185.49561
1130.0 0.000885 1157.65259 1184.54785
1148.0 0.000871 1157.57544 1183.64429
1166.0 0.000858 1157.49768 1182.78235
1178.0 0.000849 1157.41943 1181.95911
1151.0 0.000869 1157.34045 1181.17212
1112.0 0.000899 1157.26099 1180.41895
1136.0 0.000880 1157.18091 1179.69727
1190.0 0.000840 1157.10010 1179.00513
1156.0 0.000865 1157.01880 1178.34070
1165.0 0.000858 1156.93701 1177.70288
1120.0 0.000893 1156.85449 1177.08936
1156.0 0.000865 1156.77136 1176.49890
1129.0 0.000886 1156.68762 1175.93018
1167.0 0.000857 1156.60327 1175.38184
1106.0 0.000904 1156.51831 1174.85291
1122.0 0.000891 1156.43274 1174.34241
1116.0 0.000896 1156.34668 1173.84912
1114.0 0.000898 1156.25989 1173.37207
1118.0 0.000894 1156.17249 1172.91064
1122.0 0.000891 1156.08435 1172.46338
1138.0 0.000879 1155.99573 1172.03040
1139.0 0.000878 1155.90637 1171.61023
1141.0 0.000876 1155.81641 1171.20288
1169.0 0.000855 1155.72595 1170.80713
1138.0 0.000879 1155.63464 1170.42297
1089.0 0.000918 1155.54285 1170.04919
1106.0 0.000904 1155.45032 1169.68591
1124.0 0.000890 1155.35730 1169.33240
1121.0 0.000892 1155.26343 1168.55627
1141.0 0.000876 1155.16907 1168.22375
1141.0 0.000876 1155.07397 1167.89954
1135.0 0.000881 1154.97827 1167.58337
1105.0 0.000905 1154.88184 1167.27490
1103.0 0.000907 1154.78479 1166.97400
1150.0 0.000870 1154.68713 1166.68018
1117.0 0.000895 1154.58875 1166.39294
1128.0 0.000887 1154.48962 1166.11206
1125.0 0.000889 1154.39001 1165.83789
1132.0 0.000883 1154.28967 1165.56946
1109.0 0.000902 1154.18860 1165.30688
1143.0 0.000875 1154.08691 1165.04980
1100.0 0.000909 1153.98450 1164.79797
1134.0 0.000882 1153.88147 1164.55164
1110.0 0.000901 1153.77771 1164.31006
1137.0 0.000880 1153.67322 1164.07324
1103.0 0.000907 1153.56812 1163.84119
1159.0 0.000863 1153.46228 1163.61377
1172.0 0.000853 1153.35583 1163.39063
1122.0 0.000891 1153.24866 1163.17175
1138.0 0.000879 1153.14075 1162.95715
1096.0 0.000912 1153.03223 1162.74658
1122.0 0.000891 1152.92285 1162.53967
1084.0 0.000923 1152.81287 1162.33691
1080.0 0.000926 1152.70215 1162.13782
1105.0 0.000905 1152.59082 1161.94250
1119.0 0.000894 1152.47864 1161.75049
1104.0 0.000906 1152.36584 1161.56238
1112.0 0.000899 1152.25232 1161.37781
1118.0 0.000894 1152.13806 1161.19666
1097.0 0.000912 1152.02307 1161.01904
1095.0 0.000913 1151.90747 1160.84460
1123.0 0.000890 1151.79102 1160.67358
1090.0 0.000917 1151.67395 1160.50623
1101.0 0.000908 1151.55603 1160.34192
1110.0 0.000901 1151.43738 1160.18103
1105.0 0.000905 1151.31812 1160.02380
1124.0 0.000890 1151.19812 1159.87000
1111.0 0.000900 1151.07727 1159.71924
1113.0 0.000898 1150.95581 1159.57214
1095.0 0.000913 1150.83350 1159.42859
1118.0 0.000894 1150.71045 1159.28870
1150.0 0.000870 1150.58679 1159.15247
1118.0 0.000894 1150.46228 1159.01978
1147.0 0.000872 1150.33704 1158.89099
1111.0 0.000900 1150.21094 1158.76611
1081.0 0.000925 1150.08423 1158.64526
1092.0 0.000916 1149.95667 1158.52869
1111.0 0.000900 1149.82849 1158.41650
1116.0 0.000896 1149.69946 1158.30847
1127.0 0.000887 1149.56958 1158.20508
1152.0 0.000868 1149.43909 1158.10681
1119.0 0.000894 1149.30774 1158.01318
1110.0 0.000901 1149.17566 1157.92505
1089.0 0.000918 1149.04285 1157.84253
1109.0 0.000902 1148.90918 1157.76575
1107.0 0.000903 1148.77478 1157.69531
1091.0 0.000917 1148.63953 1157.63074
1120.0 0.000893 1148.50354 1157.57336
1105.0 0.000905 1148.36682 1157.52332
1123.0 0.000890 1148.22937 1157.48096
1108.0 0.000903 1148.09094 1157.44641
1144.0 0.000874 1147.95190 1157.42102
1140.0 0.000877 1147.81201 1157.40479
1119.0 0.000894 1147.67126 1157.39856
1086.0 0.000921 1147.52979 1157.40283
1084.0 0.000923 1147.38757 1157.41882
1114.0 0.000898 1147.24451 1157.44714
1092.0 0.000916 1147.10059 1157.48877
1153.0 0.000867 1146.95593 1157.54468
1151.0 0.000869 1146.81042 1157.61609
1117.0 0.000895 1146.66418 1157.70471
1113.0 0.000898 1146.51697 1157.81116
1107.0 0.000903 1146.36914 1157.93823
1051.0 0.000951 1146.22034 1158.08679
1116.0 0.000896 1146.07080 1158.25916
1103.0 0.000907 1145.92041 1160.99182
1101.0 0.000908 1145.76929 1161.25635
1103.0 0.000907 1145.61731 1161.55347
1117.0 0.000895 1145.46448 1161.88660
1137.0 0.000880 1145.31079 1162.25903
1125.0 0.000889 1145.15637 1162.67554
1085.0 0.000922 1145.00098 1163.14050
1120.0 0.000893 1144.84485 1163.66028
1128.0 0.000887 1144.68787 1164.24060
1090.0 0.000917 1144.53003 1164.88928
1133.0 0.000883 1144.37146 1165.61499
1130.0 0.000885 1144.21191 1166.42725
1153.0 0.000867 1144.05164 1167.33813
1156.0 0.000865 1143.89050 1168.36157
1120.0 0.000893 1143.72852 1169.51343
1098.0 0.000911 1143.56567 1170.81335
1118.0 0.000894 1143.40186 1172.28430
1130.0 0.000885 1143.23730 1173.95520
1163.0 0.000860 1143.07190 1175.86121
1131.0 0.000884 1142.90564 1178.66211
1157.0 0.000864 1142.73853 1181.19690
1146.0 0.000873 1142.57056 1184.16467
1131.0 0.000884 1142.40173 1187.70239
1137.0 0.000880 1142.23206 1192.02551
1157.0 0.000864 1142.06152 1197.48145
1164.0 0.000859 1141.89001 1204.62756
1168.0 0.000856 1141.71765 1214.34265
1201.0 0.000833 1141.54456 1227.96777
1275.0 0.000784 1141.37048 1247.47021
1257.0 0.000796 1141.19556 1275.60437
1316.0 0.000760 1141.01978 1316.01416
1371.0 0.000729 1140.84314 1373.19861
1491.0 0.000671 1140.66553 1452.21338
1584.0 0.000631 1140.48718 1557.30029
1736.0 0.000576 1140.30786 1693.41565
1863.0 0.000537 1140.12769 1860.64160
2152.0 0.000465 1139.94653 2055.41943
2333.0 0.000429 1139.76465 2268.67285
2569.0 0.000389 1139.58179 2484.90576
2751.0 0.000364 1139.39795 2682.49146
2929.0 0.0003414 1139.21338 2836.06470
2961.0 0.0003377 1139.02783 2920.33911
2901.0 0.0003447 1138.84143 2916.16772
2865.0 0.0003490 1138.65405 2819.23438
2624.0 0.000381 1138.46582 2645.04297
2420.0 0.000413 1138.27673 2423.46289
2174.0 0.000460 1138.08667 2186.74365
1918.0 0.000521 1137.89575 1960.72058
1745.0 0.000573 1137.70386 1762.12207
1592.0 0.000628 1137.51111 1599.15710
1443.0 0.000693 1137.31750 1473.19434
1370.0 0.000730 1137.12292 1380.84619
1308.0 0.000765 1136.92737 1316.12634
1242.0 0.000805 1136.73096 1272.31189
1220.0 0.000820 1136.53369 1243.23853
1208.0 0.000828 1136.33545 1223.96216
1160.0 0.000862 1136.13635 1210.90601
1153.0 0.000867 1135.93616 1201.69067
1156.0 0.000865 1135.73523 1194.83875
1168.0 0.000856 1135.53333 1189.47766
1136.0 0.000880 1135.33044 1185.10730
1130.0 0.000885 1135.12659 1181.44128
1107.0 0.000903 1134.92200 1178.30896
1120.0 0.000893 1134.71631 1175.60132
1153.0 0.000867 1134.50977 1173.24377
1154.0 0.000867 1134.30225 1171.18030
1107.0 0.000903 1134.09375 1169.36780
1131.0 0.000884 1133.88440 1166.38623
1142.0 0.000876 1133.67407 1164.99048
1089.0 0.000918 1133.46289 1163.75928
1104.0 0.000906 1133.25073 1162.67297
1132.0 0.000883 1133.03760 1161.71582
1143.0 0.000875 1132.82349 1160.87427
1135.0 0.000881 1132.60840 1160.13696
1119.0 0.000894 1132.39246 1159.49438
1097.0 0.000912 1132.17554 1158.93884
1109.0 0.000902 1131.95764 1158.46375
1090.0 0.000917 1131.73889 1158.06348
1094.0 0.000914 1131.51904 1157.73364
1107.0 0.000903 1131.29834 1157.47070
1121.0 0.000892 1131.07666 1157.27185
1119.0 0.000894 1130.85400 1157.13464
1118.0 0.000894 1130.63049 1157.05786
1105.0 0.000905 1130.40588 1157.04041
1131.0 0.000884 1130.18030 1157.08179
1126.0 0.000888 1129.95386 1157.18201
1149.0 0.000870 1129.72644 1157.34192
1157.0 0.000864 1129.49805 1157.56250
1166.0 0.000858 1129.26868 1157.84485
1114.0 0.000898 1129.03833 1158.19165
1167.0 0.000857 1128.80701 1158.60535
1178.0 0.000849 1128.57471 1159.08911
1170.0 0.000855 1128.34155 1159.64697
1114.0 0.000898 1128.10730 1160.39966
1149.0 0.000870 1127.87207 1161.12073
1150.0 0.000870 1127.63599 1161.93140
1131.0 0.000884 1127.39880 1162.83838
1130.0 0.000885 1127.16064 1163.84937
1156.0 0.000865 1126.92163 1164.97400
1138.0 0.000879 1126.68152 1166.22205
1164.0 0.000859 1126.44043 1167.60547
1168.0 0.000856 1126.19836 1169.13794
1194.0 0.000838 1125.95532 1170.83484
1143.0 0.000875 1125.71143 1172.71423
1158.0 0.000864 1125.46643 1174.79651
1137.0 0.000880 1125.22046 1177.10559
1179.0 0.000848 1124.97351 1179.66931
1179.0 0.000848 1124.72546 1182.51978
1218.0 0.000821 1124.47656 1185.94836
1182.0 0.000846 1124.22668 1189.49414
1191.0 0.000840 1123.97571 1193.46118
1235.0 0.000810 1123.72375 1197.91162
1264.0 0.000791 1123.47095 1202.92065
1245.0 0.000803 1123.21704 1208.57874
1234.0 0.000810 1122.96216 1214.99829
1285.0 0.000778 1122.70618 1222.32324
1236.0 0.000809 1122.44934 1230.74658
1242.0 0.000805 1122.19141 1240.53931
1299.0 0.000770 1121.93262 1252.10815
1307.0 0.000765 1121.67261 1266.08826
1368.0 0.000731 1121.41187 1283.49902
1314.0 0.000761 1121.14990 1305.98267
1403.0 0.000713 1120.88696 1336.14844
1474.0 0.000678 1120.62305 1378.02881
1536.0 0.000651 1120.35815 1437.62317
1658.0 0.000603 1120.09229 1523.45276
1752.0 0.000571 1119.82532 1646.96558
1975.0 0.000506 1119.55750 1822.52893
2259.0 0.000443 1119.28857 2066.62280
2599.0 0.000385 1119.01855 2395.80640
3055.0 0.0003273 1118.74768 2823.12256
3567.0 0.0002803 1118.47571 3353.15308
4343.0 0.0002303 1118.20276 3976.84595
5014.0 0.0001994 1117.92871 4667.45459
5813.0 0.0001720 1117.65369 5377.85156
6574.0 0.0001521 1117.37769 6040.57373
7007.0 0.0001427 1117.10071 6574.00635
7366.0 0.0001358 1116.82275 6894.39551
7201.0 0.0001389 1116.54370 6934.47412
6903.0 0.0001449 1116.26355 6670.87451
6333.0 0.0001579 1115.98254 6143.79004
5566.0 0.0001797 1115.70032 5444.64014
4764.0 0.0002099 1115.41724 4678.59180
4076.0 0.0002453 1115.13306 3933.38745
3372.0 0.0002966 1114.84790 3268.08252
2762.0 0.000362 1114.56177 2713.89868
2377.0 0.000421 1114.27454 2279.19531
2025.0 0.000494 1113.98633 1955.86841
1863.0 0.000537 1113.69714 1726.15710
1685.0 0.000593 1113.40686 1568.77014
1527.0 0.000655 1113.11560 1463.39050
1452.0 0.000689 1112.82324 1393.20520
1452.0 0.000689 1112.52979 1345.71399
1372.0 0.000729 1112.23547 1312.39294
1323.0 0.000756 1111.94019 1287.82825
1314.0 0.000761 1111.64368 1268.76392
1260.0 0.000794 1111.34631 1253.31055
1263.0 0.000792 1111.04773 1240.37903
1245.0 0.000803 1110.74829 1229.32593
1229.0 0.000814 1110.44775 1219.74707
1252.0 0.000799 1110.14612 1211.36890
1261.0 0.000793 1109.84363 1203.99170
1220.0 0.000820 1109.54004 1197.46143
1196.0 0.000836 1109.23535 1191.65515
1176.0 0.000850 1108.92969 1186.47180
1168.0 0.000856 1108.62292 1181.82874
1185.0 0.000844 1108.31519 1177.65601
1164.0 0.000859 1108.00647 1173.89624
1178.0 0.000849 1107.69666 1170.49963
1203.0 0.000831 1107.38586 1167.42517
1185.0 0.000844 1107.07397 1164.63770
1182.0 0.000846 1106.76111 1162.10620
1187.0 0.000842 1106.44714 1159.80591
1157.0 0.000864 1106.13220 1157.71436
1177.0 0.000850 1105.81616 1155.81262
1154.0 0.000867 1105.49915 1154.08435
1182.0 0.000846 1105.18103 1152.51587
1158.0 0.000864 1104.86194 1151.09546
1195.0 0.000837 1104.54187 1149.81250
1159.0 0.000863 1104.22070 1148.65881
1177.0 0.000850 1103.89856 1147.62708
1163.0 0.000860 1103.57532 1146.71094
1182.0 0.000846 1103.25098 1146.14429
1153.0 0.000867 1102.92566 1145.44897
1153.0 0.000867 1102.59937 1145.03528
1154.0 0.000867 1102.27197 1144.54980
1174.0 0.000852 1101.94360 1144.16614
1154.0 0.000867 1101.61414 1143.88440
1134.0 0.000882 1101.28369 1143.70532
1131.0 0.000884 1100.95215 1143.63098
1162.0 0.000861 1100.61963 1143.66443
1157.0 0.000864 1100.28601 1143.80896
1160.0 0.000862 1099.95129 1144.06970
1121.0 0.000892 1099.61572 1144.45374
1190.0 0.000840 1099.27905 1144.96765
1152.0 0.000868 1098.94128 1145.62073
1150.0 0.000870 1098.60254 1146.42444
1134.0 0.000882 1098.26270 1147.39099
1172.0 0.000853 1097.92188 1148.53613
1154.0 0.000867 1097.57996 1149.87732
1166.0 0.000858 1097.23706 1151.43665
1176.0 0.000850 1096.89307 1153.23804
1162.0 0.000861 1096.54810 1155.31152
1171.0 0.000854 1096.20215 1157.69189
1179.0 0.000848 1095.85510 1160.42114
1196.0 0.000836 1095.50708 1163.54895
1174.0 0.000852 1095.15796 1167.13562
1183.0 0.000845 1094.80774 1171.25537
1198.0 0.000835 1094.45654 1176.00146
1159.0 0.000863 1094.10425 1181.49487
1215.0 0.000823 1093.75098 1187.90247
1220.0 0.000820 1093.39673 1195.46521
1190.0 0.000840 1093.04150 1204.55432
1280.0 0.000781 1092.68506 1215.76184
1268.0 0.000789 1092.32764 1230.05212
1284.0 0.000779 1091.96924 1248.98816
1281.0 0.000781 1091.60974 1275.05042
1360.0 0.000735 1091.24927 1312.05042
1443.0 0.000693 1090.88770 1365.59216
1543.0 0.000648 1090.52515 1443.49451
1641.0 0.000609 1090.16162 1555.99731
1816.0 0.000551 1089.79700 1715.48120
2080.0 0.000481 1089.43140 1935.36560
2392.0 0.000418 1089.06470 2227.85132
2766.0 0.000362 1088.69702 2600.40869
3246.0 0.0003081 1088.32825 3051.49097
3739.0 0.0002675 1087.95837 3566.64087
4357.0 0.0002295 1087.58765 4115.92188
4902.0 0.0002040 1087.21582 4652.98584
5402.0 0.0001851 1086.84302 5117.61768
5677.0 0.0001761 1086.46912 5443.44922
5732.0 0.0001745 1086.09424 5570.46045
5622.0 0.0001779 1085.71826 5464.07471
5140.0 0.0001946 1085.34131 5135.14990
4650.0 0.0002151 1084.96326 4641.32715
4108.0 0.0002434 1084.58435 4063.19580
3450.0 0.0002899 1084.20422 3475.85522
2962.0 0.0003376 1083.82324 2934.31836
2521.0 0.000397 1083.44116 2471.26392
2149.0 0.000465 1083.05811 2099.87085
1860.0 0.000538 1082.67395 1818.37683
1689.0 0.000592 1082.28882 1615.35413
1548.0 0.000646 1081.90259 1474.83142
1410.0 0.000709 1081.51538 1380.39355
1305.0 0.000766 1081.12720 1317.77332
1279.0 0.000782 1080.73804 1275.96118
1279.0 0.000782 1080.34778 1247.22583
1231.0 0.000812 1079.95654 1226.54431
1198.0 0.000835 1079.56421 1210.84888
1202.0 0.000832 1079.17102 1198.34766
1169.0 0.000855 1078.77661 1188.01379
1164.0 0.000859 1078.38135 1179.25317
1156.0 0.000865 1077.98499 1171.70471
1118.0 0.000894 1077.58765 1165.13257
1151.0 0.000869 1077.18933 1159.36987
1110.0 0.000901 1076.78992 1154.29053
1157.0 0.000864 1076.38953 1149.79529
1157.0 0.000864 1075.98816 1145.80408
1117.0 0.000895 1075.58582 1142.25073
1115.0 0.000897 1075.18237 1139.08081
1134.0 0.000882 1074.77795 1136.24866
1143.0 0.000875 1074.37256 1133.71643
1119.0 0.000894 1073.96619 1131.45203
1170.0 0.000855 1073.55872 1129.42834
1146.0 0.000873 1073.15027 1127.62341
1099.0 0.000910 1072.74084 1126.01758
1075.0 0.000930 1072.33044 1124.59509
1140.0 0.000877 1071.91895 1123.34265
1093.0 0.000915 1071.50659 1122.24915
1121.0 0.000892 1071.09314 1121.03259
1090.0 0.000917 1070.67883 1120.23401
1109.0 0.000902 1070.26343 1119.57202
1100.0 0.000909 1069.84692 1119.04236
1100.0 0.000909 1069.42957 1118.64258
1096.0 0.000912 1069.01111 1118.37061
1069.0 0.000935 1068.59167 1118.22595
1152.0 0.000868 1068.17139 1118.21008
1140.0 0.000877 1067.75000 1118.32434
1132.0 0.000883 1067.32764 1118.57214
1118.0 0.000894 1066.90430 1118.95813
1159.0 0.000863 1066.47998 1119.48767
1112.0 0.000899 1066.05469 1120.16858
1102.0 0.000907 1065.62830 1121.00903
1154.0 0.000867 1065.20105 1122.02026
1127.0 0.000887 1064.77271 1123.21460
1175.0 0.000851 1064.34351 1124.60657
1115.0 0.000897 1063.91321 1126.21350
1172.0 0.000853 1063.48206 1128.05554
1160.0 0.000862 1063.04993 1130.15625
1120.0 0.000893 1062.61670 1132.54260
1103.0 0.000907 1062.18262 1135.24658
1095.0 0.000913 1061.74744 1138.30579
1126.0 0.000888 1061.31140 1141.76404
1142.0 0.000876 1060.87439 1145.67261
1172.0 0.000853 1060.43628 1150.09241
1153.0 0.000867 1059.99744 1155.09631
1131.0 0.000884 1059.55750 1160.77087
1155.0 0.000866 1059.11658 1167.22021
1131.0 0.000884 1058.67468 1174.57385
1163.0 0.000860 1058.23181 1182.99390
1143.0 0.000875 1057.78796 1192.69336
1183.0 0.000845 1057.34326 1203.96655
1203.0 0.000831 1056.89746 1217.24500
1255.0 0.000797 1056.45081 1233.19446
1285.0 0.000778 1056.00330 1252.88135
1272.0 0.000786 1055.55469 1278.03247
1339.0 0.000747 1055.10510 1311.42603
1430.0 0.000699 1054.65466 1357.41907
1538.0 0.000650 1054.20313 1422.60022
1603.0 0.000624 1053.75073 1516.48291
1787.0 0.000560 1053.29749 1652.06018
1937.0 0.000516 1052.84314 1845.92883
2293.0 0.000436 1052.38806 2117.56177
2584.0 0.000387 1051.93188 2487.23340
3098.0 0.0003228 1051.47473 2972.16382
3738.0 0.0002675 1051.01672 3580.78369
4517.0 0.0002214 1050.55774 4305.98633
5347.0 0.0001870 1050.09778 5119.70557
6284.0 0.0001591 1049.63696 5971.02393
7194.0 0.0001390 1049.17517 6786.53076
8055.0 0.0001241 1048.71265 7472.13330
8332.0 0.0001200 1048.24890 7924.10107
8455.0 0.0001183 1047.78442 8054.76709
8052.0 0.0001242 1047.31885 7824.31836
7324.0 0.0001365 1046.85254 7264.36133
6681.0 0.0001497 1046.38513 6472.26514
5743.0 0.0001741 1045.91687 5571.73193
4818.0 0.0002076 1045.44775 4672.26709
3980.0 0.0002513 1044.97766 3851.36426
3283.0 0.0003046 1044.50671 3153.48779
2761.0 0.000362 1044.03479 2595.10620
2271.0 0.000440 1043.56201 2171.64941
2004.0 0.000499 1043.08826 1865.19238
1751.0 0.000571 1042.61365 1651.74414
1555.0 0.000643 1042.13806 1506.99683
1434.0 0.000697 1041.66162 1409.91418
1402.0 0.000713 1041.18433 1344.24585
1364.0 0.000733 1040.70618 1298.52490
1293.0 0.000773 1040.22693 1265.23950
1230.0 0.000813 1039.74695 1239.75342
1192.0 0.000839 1039.26599 1219.32117
1177.0 0.000850 1038.78418 1202.34937
1207.0 0.000829 1038.30139 1187.90051
1170.0 0.000855 1037.81787 1175.39954
1114.0 0.000898 1037.33337 1164.46704
1141.0 0.000876 1036.84802 1154.83350
1128.0 0.000887 1036.36182 1146.29443
1116.0 0.000896 1035.87463 1138.68884
1130.0 0.000885 1035.38660 1131.88660
1124.0 0.000890 1034.89783 1125.77917
1106.0 0.000904 1034.40796 1120.27747
1113.0 0.000898 1033.91736 1115.30627
1110.0 0.000901 1033.42590 1110.80249
1111.0 0.000900 1032.93347 1106.95447
1064.0 0.000940 1032.44031 1103.23535
1118.0 0.000894 1031.94617 1099.84558
1093.0 0.000915 1031.45129 1096.75330
1067.0 0.000937 1030.95544 1093.92920
1067.0 0.000937 1030.45874 1091.35046
1080.0 0.000926 1029.96118 1089.89453
1074.0 0.000931 1029.46277 1087.75952
1082.0 0.000924 1028.96350 1085.81628
1089.0 0.000918 1028.46350 1084.62268
1084.0 0.000923 1027.96265 1083.03198
1046.0 0.000956 1027.46082 1081.60132
1029.0 0.000972 1026.95813 1080.32397
1041.0 0.000961 1026.45471 1079.19458
1088.0 0.000919 1025.95044 1078.20959
1071.0 0.000934 1025.44531 1077.36597
1044.0 0.000958 1024.93933 1076.66272
1061.0 0.000943 1024.43262 1076.10046
1083.0 0.000923 1023.92493 1075.68079
1034.0 0.000967 1023.41644 1075.40637
1044.0 0.000958 1022.90717 1075.28284
1060.0 0.000943 1022.39709 1075.31555
1095.0 0.000913 1021.88623 1075.51379
1047.0 0.000955 1021.37439 1075.88684
1064.0 0.000940 1020.86194 1076.44788
1048.0 0.000954 1020.34845 1077.21216
1053.0 0.000950 1019.83435 1078.19763
1046.0 0.000956 1019.31927 1079.42615
1065.0 0.000939 1018.80359 1080.92480
1074.0 0.000931 1018.28693 1082.72375
1073.0 0.000932 1017.76959 1084.86060
1108.0 0.000903 1017.25146 1087.38000
1053.0 0.000950 1016.73242 1090.33630
1061.0 0.000943 1016.21271 1093.79529
1060.0 0.000943 1015.69202 1097.83862
1053.0 0.000950 1015.17078 1102.57153
1103.0 0.000907 1014.64850 1108.13342
1108.0 0.000903 1014.12567 1114.72205
1150.0 0.000870 1013.60205 1122.63196
1080.0 0.000926 1013.07745 1132.32629
1125.0 0.000889 1012.55225 1144.55322
1174.0 0.000852 1012.02612 1160.52783
1228.0 0.000814 1011.49939 1182.33228
1220.0 0.000820 1010.97174 1212.73022
1284.0 0.000779 1010.44348 1256.38513
1369.0 0.000730 1009.91425 1319.73413
1494.0 0.000669 1009.38446 1411.38513
1579.0 0.000633 1008.85394 1542.02600
1728.0 0.000579 1008.32245 1723.70471
2025.0 0.000494 1007.79041 1968.19617
2343.0 0.000427 1007.25745 2284.25659
2740.0 0.000365 1006.72388 2673.87451
3175.0 0.0003150 1006.18939 3128.28662
3785.0 0.0002642 1005.65436 3625.30933
4306.0 0.0002322 1005.11841 4128.96729
4810.0 0.0002079 1004.58191 4590.29932
5076.0 0.0001970 1004.04468 4949.96826
5246.0 0.0001906 1003.50647 5147.99268
5255.0 0.0001903 1002.96777 5141.49902
4910.0 0.0002037 1002.42816 4923.11475
4595.0 0.0002176 1001.88800 4529.13379
4038.0 0.0002476 1001.34692 4026.59497
3507.0 0.0002851 1000.80536 3487.12646
2956.0 0.0003383 1000.26306 2968.22388
2571.0 0.000389 999.71985 2507.70459
2162.0 0.000463 999.17609 2125.01489
1868.0 0.000535 998.63147 1824.69287
1588.0 0.000630 998.08636 1600.63745
1479.0 0.000676 997.54028 1440.57446
1385.0 0.000722 996.99377 1330.04138
1282.0 0.000780 996.44635 1255.29297
1203.0 0.000831 995.89844 1204.93481
1154.0 0.000867 995.34979 1170.44678
1120.0 0.000893 994.80029 1145.96924
1095.0 0.000913 994.25031 1127.73950
1133.0 0.000883 993.69946 1113.46777
1074.0 0.000931 993.14807 1101.80737
1054.0 0.000949 992.59589 1091.97498
1047.0 0.000955 992.04321 1083.50317
1076.0 0.000929 991.48962 1076.09900
1064.0 0.000940 990.93561 1069.56384
1053.0 0.000950 990.38092 1063.75439
1026.0 0.000975 989.82532 1058.55847
1019.0 0.000981 989.26935 1053.88867
1053.0 0.000950 988.71246 1049.67236
1033.0 0.000968 988.15509 1045.84985
1021.0 0.000979 987.59692 1042.37097
1009.0 0.000991 987.03833 1039.19434
980.0 0.001020 986.47906 1036.28418
1022.0 0.000978 985.91895 1033.61023
1027.0 0.000974 985.35846 1031.14783
1025.0 0.000976 984.79706 1028.87451
1023.0 0.000978 984.23523 1026.77234
1048.0 0.000954 983.67261 1024.82520
991.0 0.001009 983.10956 1023.01959
992.0 0.001008 982.54565 1021.34363
1003.0 0.000997 981.98138 1019.78802
1008.0 0.000992 981.41644 1018.34399
984.0 0.001016 980.85071 1017.00452
977.0 0.001024 980.28461 1015.76392
989.0 0.001011 979.71765 1014.61719
987.0 0.001013 979.15027 1013.56061
994.0 0.001006 978.58215 1012.59155
979.0 0.001021 978.01355 1011.70795
981.0 0.001019 977.44421 1010.90851
971.0 0.001030 976.87445 1010.19318
961.0 0.001041 976.30420 1009.56281
986.0 0.001014 975.73309 1009.01843
968.0 0.001033 975.16156 1008.56293
992.0 0.001008 974.58929 1008.19922
970.0 0.001031 974.01666 1007.93280
1017.0 0.000983 973.44324 1007.76886
993.0 0.001007 972.86945 1007.71503
981.0 0.001019 972.29510 1007.78052
1006.0 0.000994 971.71997 1007.97546
996.0 0.001004 971.14453 1008.31378
1013.0 0.000987 970.56830 1008.81073
996.0 0.001004 969.99170 1009.48590
979.0 0.001021 969.41431 1010.36169
971.0 0.001030 968.83667 1011.46704
1013.0 0.000987 968.25824 1012.83539
985.0 0.001015 967.67950 1014.51123
976.0 0.001025 967.10016 1016.55035
994.0 0.001006 966.52014 1019.02972
1011.0 0.000989 965.93976 1022.06158
1028.0 0.000973 965.35864 1025.81726
1029.0 0.000972 964.77722 1030.57214
1060.0 0.000943 964.19507 1036.77673
1056.0 0.000947 963.61261 1045.16748
1058.0 0.000945 963.02948 1056.92383
1095.0 0.000913 962.44598 1073.86841
1147.0 0.000872 961.86200 1098.69116
1164.0 0.000859 961.27728 1135.14648
1237.0 0.000808 960.69232 1188.13110
1290.0 0.000775 960.10657 1263.51270
1390.0 0.000719 959.52063 1367.56665
1544.0 0.000648 958.93396 1505.87317
1708.0 0.000585 958.34698 1681.64966
1912.0 0.000523 957.75952 1893.67969
2221.0 0.000450 957.17139 2134.41089
2445.0 0.000409 956.58301 2389.04858
2738.0 0.000365 955.99396 2635.81055
2955.0 0.0003384 955.40454 2846.82788
3040.0 0.0003289 954.81451 2990.98657
3066.0 0.0003262 954.22430 3041.03882
3048.0 0.0003281 953.63336 2983.42139
2858.0 0.0003499 953.04218 2825.77124
2586.0 0.000387 952.45050 2595.74634
2320.0 0.000431 951.85815 2329.79785
2081.0 0.000481 951.26563 2061.03906
1886.0 0.000530 950.67242 1813.48779
1654.0 0.000605 950.07898 1601.39551
1415.0 0.000707 949.48492 1430.53662
1304.0 0.000767 948.89063 1300.17627
1217.0 0.000822 948.29572 1205.33228
1171.0 0.000854 947.70056 1138.97986
1077.0 0.000929 947.10498 1093.83057
1037.0 0.000964 946.50879 1063.47925
1048.0 0.000954 945.91241 1042.92175
1032.0 0.000969 945.31531 1028.59253
1046.0 0.000956 944.71814 1018.13989
992.0 0.001008 944.12030 1010.10327
967.0 0.001034 943.52228 1003.61786
951.0 0.001052 942.92383 998.25092
935.0 0.001070 942.32477 993.57220
966.0 0.001035 941.72559 989.51141
975.0 0.001026 941.12573 985.87738
1001.0 0.000999 940.52576 982.62756
982.0 0.001018 939.92517 979.70160
938.0 0.001066 939.32446 977.05225
968.0 0.001033 938.72314 974.64124
981.0 0.001019 938.12164 972.43726
971.0 0.001030 937.51978 970.41412
921.0 0.001086 936.91736 968.54999
977.0 0.001024 936.31482 966.82715
949.0 0.001054 935.71167 965.22955
922.0 0.001085 935.10834 963.74463
944.0 0.001059 934.50452 962.36115
918.0 0.001089 933.90057 961.07025
933.0 0.001072 933.29602 959.86365
914.0 0.001094 932.69141 958.73505
947.0 0.001056 932.08643 957.67871
928.0 0.001078 931.48090 956.69019
920.0 0.001087 930.87524 955.76575
942.0 0.001062 930.26904 954.90210
933.0 0.001072 929.66278 954.09735
943.0 0.001060 929.05597 953.34955
945.0 0.001058 928.44910 952.65771
933.0 0.001072 927.84186 952.02136
926.0 0.001080 927.23413 951.44019
892.0 0.001121 926.62628 950.91553
942.0 0.001062 926.01794 950.44788
919.0 0.001088 925.40955 950.04004
915.0 0.001093 924.80060 949.69385
911.0 0.001098 924.19165 949.41327
908.0 0.001101 923.58215 949.20178
917.0 0.001091 922.97266 949.06519
918.0 0.001089 922.36279 949.00934
929.0 0.001076 921.75244 949.04156
900.0 0.001111 921.14215 949.17126
934.0 0.001071 920.53125 949.40869
925.0 0.001081 919.92041 949.76733
949.0 0.001054 919.30902 950.26184
926.0 0.001080 918.69763 950.91144
918.0 0.001089 918.08575 951.73810
890.0 0.001124 917.47388 952.77081
930.0 0.001075 916.86176 954.04492
928.0 0.001078 916.24915 955.60840
950.0 0.001053 915.63654 957.52814
928.0 0.001078 915.02344 959.90326
932.0 0.001073 914.41040 962.88904
956.0 0.001046 913.79688 966.73254
951.0 0.001052 913.18341 971.83582
956.0 0.001046 912.56970 978.83893
1007.0 0.000993 911.95551 988.73590
1017.0 0.000983 911.34137 1003.01080
1003.0 0.000997 910.72681 1023.76581
1087.0 0.000920 910.11224 1053.26001
1081.0 0.000925 909.49725 1096.04712
1145.0 0.000873 908.88232 1155.46118
1235.0 0.000810 908.26697 1235.26807
1346.0 0.000743 907.65167 1338.25964
1462.0 0.000684 907.03619 1465.08765
1654.0 0.000605 906.42029 1613.00732
1874.0 0.000534 905.80438 1774.93921
2033.0 0.000492 905.18817 1939.26184
2177.0 0.000459 904.57196 2090.20752
2245.0 0.000445 903.95538 2208.82422
2348.0 0.000426 903.33887 2275.81738
2310.0 0.000433 902.72198 2277.08569
2245.0 0.000445 902.10516 2209.85278
2117.0 0.000472 901.48816 2085.31763
1936.0 0.000517 900.87085 1924.54028
1763.0 0.000567 900.25360 1750.26038
1638.0 0.000611 899.63593 1580.96631
1440.0 0.000694 899.01843 1429.06213
1292.0 0.000774 898.40057 1301.22571
1218.0 0.000821 897.78278 1199.44360
1131.0 0.000884 897.16486 1122.27405
1060.0 0.000943 896.54663 1066.17969
1036.0 0.000965 895.92847 1026.74927
995.0 0.001005 895.31000 999.63129
986.0 0.001014 894.69165 981.10272
993.0 0.001007 894.07294 968.29224
965.0 0.001036 893.45441 959.16656
961.0 0.001041 892.83551 952.38068
929.0 0.001076 892.21680 947.09436
899.0 0.001112 891.59796 942.80133
928.0 0.001078 890.97882 939.20294
913.0 0.001095 890.35980 936.12128
906.0 0.001104 889.74054 933.44513
910.0 0.001099 889.12134 931.10205
920.0 0.001087 888.50189 929.03973
915.0 0.001093 887.88263 927.22009
944.0 0.001059 887.26306 925.61243
903.0 0.001107 886.64368 924.19305
890.0 0.001124 886.02423 922.94244
910.0 0.001099 885.40448 921.84448
894.0 0.001119 884.78497 920.88702
913.0 0.001095 884.16510 920.05945
898.0 0.001114 883.54547 919.35449
904.0 0.001106 882.92560 918.76550
918.0 0.001089 882.30591 918.28857
911.0 0.001098 881.68616 917.92035
918.0 0.001089 881.06616 917.65906
908.0 0.001101 880.44641 917.50500
865.0 0.001156 879.82642 917.45837
890.0 0.001124 879.20660 917.52161
915.0 0.001093 878.58655 917.05548
895.0 0.001117 877.96674 917.35327
938.0 0.001066 877.34674 917.77374
937.0 0.001067 876.72693 918.32440
934.0 0.001071 876.10712 919.01355
888.0 0.001126 875.48712 919.85089
915.0 0.001093 874.86737 920.84894
922.0 0.001085 874.24738 922.02094
958.0 0.001044 873.62762 923.38361
886.0 0.001129 873.00769 924.95544
922.0 0.001085 872.38800 926.75891
891.0 0.001122 871.76813 928.81927
894.0 0.001119 871.14850 931.16650
944.0 0.001059 870.52899 933.83575
937.0 0.001067 869.90924 936.86755
935.0 0.001070 869.28979 940.31061
971.0 0.001030 868.67010 944.22150
920.0 0.001087 868.05078 948.66882
911.0 0.001098 867.43121 953.73346
953.0 0.001049 866.81201 959.51514
974.0 0.001027 866.19281 966.13678
945.0 0.001058 865.57349 973.75580
944.0 0.001059 864.95447 982.58484
983.0 0.001017 864.33533 992.92285
1017.0 0.000983 863.71643 1005.22162
1012.0 0.000988 863.09747 1020.18872
1029.0 0.000972 862.47876 1038.96619
1106.0 0.000904 861.85999 1063.40161
1136.0 0.000880 861.24152 1096.43762
1163.0 0.000860 860.62311 1142.61328
1227.0 0.000815 860.00458 1208.63611
1350.0 0.000741 859.38641 1303.89587
1495.0 0.000669 858.76813 1440.70032
1738.0 0.000575 858.15021 1633.93066
2018.0 0.000496 857.53217 1899.74902
2386.0 0.000419 856.91443 2253.06812
2810.0 0.000356 856.29669 2703.65771
3404.0 0.0002938 855.67926 3251.18481
4073.0 0.0002455 855.06195 3880.15723
4935.0 0.0002026 854.44452 4556.56934
5447.0 0.0001836 853.82758 5227.69824
6193.0 0.0001615 853.21045 5824.45020
6543.0 0.0001528 852.59375 6266.95752
6713.0 0.0001490 851.97693 6479.07275
6591.0 0.0001517 851.36060 6412.95361
6217.0 0.0001608 850.74432 6072.36670
5742.0 0.0001742 850.12805 5516.55957
4929.0 0.0002029 849.51215 4836.51074
4224.0 0.0002367 848.89618 4122.04395
3583.0 0.0002791 848.28064 3442.53809
2902.0 0.0003446 847.66504 2842.52686
2431.0 0.000411 847.04987 2344.29199
2096.0 0.000477 846.43463 1952.19775
1697.0 0.000589 845.81982 1657.93298
1500.0 0.000667 845.20520 1445.87097
1340.0 0.000746 844.59058 1297.80945
1229.0 0.000814 843.97638 1196.43335
1190.0 0.000840 843.36218 1127.28101
1132.0 0.000883 842.74835 1079.41040
1066.0 0.000938 842.13458 1045.17932
1053.0 0.000950 841.52124 1019.59180
1058.0 0.000945 840.90790 999.54596
982.0 0.001018 840.29498 983.18286
958.0 0.001044 839.68231 969.40070
909.0 0.001100 839.06964 957.53571
965.0 0.001036 838.45746 947.17023
964.0 0.001037 837.84521 938.02148
933.0 0.001072 837.23352 929.88623
941.0 0.001063 836.62183 922.60797
926.0 0.001080 836.01062 916.06274
912.0 0.001096 835.39966 910.14886
928.0 0.001078 834.78876 904.78186
959.0 0.001043 834.17834 899.89172
902.0 0.001109 833.56793 895.41840
896.0 0.001116 832.95801 891.31244
892.0 0.001121 832.34814 887.53040
892.0 0.001121 831.73883 884.03601
848.0 0.001179 831.12952 880.79736
887.0 0.001127 830.52075 877.78784
866.0 0.001155 829.91229 874.98376
875.0 0.001143 829.30383 872.36444
881.0 0.001135 828.69592 869.91278
887.0 0.001127 828.08813 867.61310
878.0 0.001139 827.48077 865.45215
857.0 0.001167 826.87360 863.41791
852.0 0.001174 826.26691 861.50092
868.0 0.001152 825.66034 859.69159
863.0 0.001159 825.05426 857.98254
892.0 0.001121 824.44855 855.94611
853.0 0.001172 823.84290 854.42145
838.0 0.001193 823.23785 852.98029
837.0 0.001195 822.63287 851.61798
893.0 0.001120 822.02844 850.33209
873.0 0.001145 821.42413 849.11969
819.0 0.001221 820.82043 847.97974
827.0 0.001209 820.21710 846.91113
854.0 0.001171 819.61383 845.91388
858.0 0.001166 819.01117 844.98889
855.0 0.001170 818.40863 844.13806
862.0 0.001160 817.80664 843.36487
855.0 0.001170 817.20483 842.67334
884.0 0.001131 816.60364 842.07037
881.0 0.001135 816.00256 841.56433
841.0 0.001189 815.40210 841.16821
822.0 0.001217 814.80200 840.90039
806.0 0.001241 814.20209 840.78998
846.0 0.001182 813.60278 840.88324
866.0 0.001155 813.00360 841.25507
849.0 0.001178 812.40503 842.02869
818.0 0.001222 811.80670 843.40009
833.0 0.001200 811.20892 845.67438
895.0 0.001117 810.61139 849.30273
843.0 0.001186 810.01440 854.91949
835.0 0.001198 809.41791 863.35876
870.0 0.001149 808.82159 875.63184
869.0 0.001151 808.22589 892.84369
892.0 0.001121 807.63043 916.25641
925.0 0.001081 807.03558 946.09418
969.0 0.001032 806.44092 982.61292
1024.0 0.000977 805.84698 1024.82336
1070.0 0.000935 805.25336 1070.47620
1076.0 0.000929 804.66003 1116.02380
1139.0 0.000878 804.06738 1156.78394
1117.0 0.000895 803.47498 1187.31738
1162.0 0.000861 802.88318 1202.36926
1118.0 0.000894 802.29163 1198.51111
1118.0 0.000894 801.70081 1175.77417
1130.0 0.000885 801.11017 1138.00037
1069.0 0.000935 800.52020 1091.30322
1030.0 0.000971 799.93073 1041.83435
997.0 0.001003 799.34149 994.41589
911.0 0.001098 798.75299 952.20416
908.0 0.001101 798.16467 916.83954
870.0 0.001149 797.57709 888.70837
849.0 0.001178 796.98981 867.32971
841.0 0.001189 796.40320 851.68671
855.0 0.001170 795.81689 840.55603
829.0 0.001206 795.23120 832.75189
807.0 0.001239 794.64612 827.26843
775.0 0.001290 794.06128 823.33423
768.0 0.001302 793.47711 820.40411
810.0 0.001235 792.89331 818.11719
807.0 0.001239 792.31018 816.24817
799.0 0.001252 791.72736 814.66028
754.0 0.001326 791.14532 813.34637
739.0 0.001353 790.56372 812.11273
813.0 0.001230 789.98248 811.00098
781.0 0.001280 789.40198 809.99231
799.0 0.001252 788.82178 809.07220
783.0 0.001277 788.24237 808.23108
782.0 0.001279 787.66321 807.46069
791.0 0.001264 787.08484 806.75555
808.0 0.001238 786.50684 806.11029
773.0 0.001294 785.92950 805.52191
806.0 0.001241 785.35278 804.98767
777.0 0.001287 784.77643 804.50525
790.0 0.001266 784.20081 804.07416
812.0 0.001232 783.62555 803.69360
818.0 0.001222 783.05103 803.36401
805.0 0.001242 782.47687 803.08551
785.0 0.001274 781.90356 802.86029
816.0 0.001225 781.33051 802.68896
823.0 0.001215 780.75830 802.57513
773.0 0.001294 780.18671 802.52130
800.0 0.001250 779.61542 802.53107
799.0 0.001252 779.04492 802.60913
828.0 0.001208 778.47485 802.76038
749.0 0.001335 777.90558 802.99139
799.0 0.001252 777.33667 803.30847
817.0 0.001224 776.76855 803.72089
781.0 0.001280 776.20105 804.23779
774.0 0.001292 775.63397 804.87012
785.0 0.001274 775.06769 805.63110
787.0 0.001271 774.50177 806.53577
770.0 0.001299 773.93671 807.60223
782.0 0.001279 773.37207 808.85089
791.0 0.001264 772.80823 810.30640
842.0 0.001188 772.24481 811.99774
811.0 0.001233 771.68225 813.95984
828.0 0.001208 771.12030 816.23444
830.0 0.001205 770.55878 818.87219
818.0 0.001222 769.99811 821.93799
803.0 0.001245 769.43787 825.51569
814.0 0.001229 768.87842 829.72089
840.0 0.001190 768.31946 834.72162
821.0 0.001218 767.76141 840.77594
846.0 0.001182 767.20374 848.29407
857.0 0.001167 766.64691 857.94025
869.0 0.001151 766.09076 870.36169
904.0 0.001106 765.53503 888.07330
930.0 0.001075 764.98022 913.18250
967.0 0.001034 764.42584 949.32721
1015.0 0.000985 763.87238 1001.43927
1098.0 0.000911 763.31934 1076.23340
1245.0 0.000803 762.76715 1179.84192
1342.0 0.000745 762.21570 1319.97192
1538.0 0.000650 761.66467 1502.47937
1810.0 0.000552 761.11456 1729.90002
2203.0 0.000454 760.56494 1999.17151
2536.0 0.000394 760.01624 2299.58521
2876.0 0.0003477 759.46796 2611.74487
3180.0 0.0003145 758.92059 2908.00000
3412.0 0.0002931 758.37378 3154.20703
3628.0 0.0002756 757.82776 3313.83936
3652.0 0.0002738 757.28253 3356.93994
3516.0 0.0002844 756.73779 3270.98828
3301.0 0.0003029 756.19397 3069.80713
3013.0 0.0003319 755.65063 2788.08057
2626.0 0.000381 755.10822 2467.85815
2264.0 0.000442 754.56635 2145.90918
1990.0 0.000503 754.02539 1848.61133
1690.0 0.000592 753.48492 1591.73499
1497.0 0.000668 752.94537 1381.97449
1260.0 0.000794 752.40662 1219.01538
1166.0 0.000858 751.86835 1097.83423
1044.0 0.000958 751.33099 1010.95410
972.0 0.001029 750.79419 950.32446
954.0 0.001048 750.25836 908.60999
899.0 0.001112 749.72302 879.85291
871.0 0.001148 749.18872 859.63171
857.0 0.001167 748.65509 844.89789
828.0 0.001208 748.12201 833.67279
807.0 0.001239 747.58990 824.73169
817.0 0.001224 747.05835 817.33698
845.0 0.001183 746.52771 811.04816
776.0 0.001289 745.99768 805.59558
764.0 0.001309 745.46863 800.80646
787.0 0.001271 744.94012 796.56189
777.0 0.001287 744.41260 792.77533
802.0 0.001247 743.88586 789.37952
761.0 0.001314 743.35962 786.32056
801.0 0.001248 742.83441 783.55518
773.0 0.001294 742.30981 781.04669
790.0 0.001266 741.78613 778.76520
781.0 0.001280 741.26306 776.68506
775.0 0.001290 740.74103 774.78540
745.0 0.001342 740.21954 773.04785
788.0 0.001269 739.69904 771.45776
767.0 0.001304 739.17932 770.00250
749.0 0.001335 738.66022 768.67139
756.0 0.001323 738.14215 767.45605
733.0 0.001364 737.62463 766.34888
786.0 0.001272 737.10815 765.34497
751.0 0.001332 736.59229 764.43939
734.0 0.001362 736.07739 763.62964
742.0 0.001348 735.56335 762.91345
766.0 0.001305 735.04993 762.28992
769.0 0.001300 734.53748 761.75977
772.0 0.001295 734.02570 761.32422
769.0 0.001300 733.51489 760.98627
757.0 0.001321 733.00476 760.74982
748.0 0.001337 732.49561 760.62061
742.0 0.001348 731.98718 760.60553
765.0 0.001307 731.47968 760.71393
764.0 0.001309 730.97302 760.95715
752.0 0.001330 730.46704 761.34839
730.0 0.001370 729.96210 761.90552
760.0 0.001316 729.45782 762.64880
737.0 0.001357 728.95453 763.60468
767.0 0.001304 728.45190 764.80621
747.0 0.001339 727.95038 766.29724
785.0 0.001274 727.44946 768.13806
761.0 0.001314 726.94958 770.41742
750.0 0.001333 726.45056 773.27124
778.0 0.001285 725.95227 776.91693
774.0 0.001292 725.45496 781.70782
771.0 0.001297 724.95831 788.21210
818.0 0.001222 724.46277 797.32684
813.0 0.001230 723.96790 810.41040
833.0 0.001200 723.47406 829.42517
885.0 0.001130 722.98114 857.03815
918.0 0.001089 722.48883 896.61975
989.0 0.001011 721.99768 952.05469
1060.0 0.000943 721.50714 1027.28674
1171.0 0.000854 721.01770 1125.55115
1293.0 0.000773 720.52899 1248.31384
1427.0 0.000701 720.04132 1394.04346
1675.0 0.000597 719.55432 1557.08228
1841.0 0.000543 719.06842 1727.02185
2076.0 0.000482 718.58344 1888.89160
2151.0 0.000465 718.09912 2024.14661
2290.0 0.000437 717.61597 2112.89478
2377.0 0.000421 717.13342 2138.54443
2293.0 0.000436 716.65204 2094.18652
2114.0 0.000473 716.17133 1986.75745
1957.0 0.000511 715.69171 1834.81372
1787.0 0.000560 715.21283 1661.05188
1519.0 0.000658 714.73505 1485.53333
1385.0 0.000722 714.25818 1322.79468
1237.0 0.000808 713.78204 1181.64990
1098.0 0.000911 713.30701 1065.96973
1033.0 0.000968 712.83264 975.77283
930.0 0.001075 712.35944 908.45941
888.0 0.001126 711.88696 860.03174
847.0 0.001181 711.41565 826.12738
828.0 0.001208 710.94513 802.73419
787.0 0.001271 710.47546 786.57086
791.0 0.001264 710.00690 775.18665
766.0 0.001305 709.53906 766.88098
774.0 0.001292 709.07233 760.54633
761.0 0.001314 708.60632 755.49274
745.0 0.001342 708.14148 751.30505
709.0 0.001410 707.67737 747.73486
715.0 0.001399 707.21442 744.63104
706.0 0.001416 706.75238 741.89703
755.0 0.001325 706.29108 739.46735
725.0 0.001379 705.83099 737.29486
716.0 0.001397 705.37158 735.34253
757.0 0.001321 704.91333 733.58221
729.0 0.001372 704.45587 731.98999
722.0 0.001385 703.99951 730.54675
712.0 0.001404 703.54395 729.23657
717.0 0.001395 703.08954 728.04657
718.0 0.001393 702.63605 726.96558
707.0 0.001414 702.18335 725.98474
737.0 0.001357 701.73181 725.09698
700.0 0.001429 701.28107 724.29645
715.0 0.001399 700.83142 723.57849
726.0 0.001377 700.38257 722.93976
720.0 0.001389 699.93494 722.37805
727.0 0.001376 699.48822 721.89209
731.0 0.001368 699.04230 721.48108
728.0 0.001374 698.59753 721.14594
750.0 0.001333 698.15356 720.88800
695.0 0.001439 697.71075 720.70990
731.0 0.001368 697.26874 720.61517
711.0 0.001406 696.82788 720.60864
718.0 0.001393 696.38782 720.69617
726.0 0.001377 695.94897 720.88538
711.0 0.001406 695.51105 721.18555
728.0 0.001374 695.07397 721.60748
739.0 0.001353 694.63806 722.16522
732.0 0.001366 694.20294 722.87488
719.0 0.001391 693.76898 723.75659
716.0 0.001397 693.33588 724.83453
719.0 0.001391 692.90393 726.13965
697.0 0.001435 692.47278 727.71088
705.0 0.001418 692.04285 729.60199
729.0 0.001372 691.61389 731.88776
725.0 0.001379 691.18573 734.68237
741.0 0.001350 690.75879 738.16620
755.0 0.001325 690.33264 742.63031
763.0 0.001311 689.90771 747.96594
740.0 0.001351 689.48358 756.09528
723.0 0.001383 689.06067 767.59253
768.0 0.001302 688.63873 784.16241
790.0 0.001266 688.21765 808.17108
845.0 0.001183 687.79779 842.68585
878.0 0.001139 687.37872 891.36298
901.0 0.001110 686.96088 958.11188
1034.0 0.000967 686.54382 1046.47485
1176.0 0.000850 686.12799 1158.72485
1230.0 0.000813 685.71301 1294.73218
1437.0 0.000696 685.29919 1450.75085
1559.0 0.000641 684.88647 1618.42456
1688.0 0.000592 684.47455 1784.58557
1875.0 0.000533 684.06384 1932.39929
1959.0 0.000510 683.65393 2043.46179
2020.0 0.000495 683.24524 2100.19727
2059.0 0.000486 682.83746 2090.10229
1979.0 0.000505 682.43085 2012.25928
1831.0 0.000546 682.02515 1879.94800
1679.0 0.000596 681.62054 1714.93689
1553.0 0.000644 681.21704 1539.05688
1372.0 0.000729 680.81439 1369.42004
1255.0 0.000797 680.41296 1217.38733
1068.0 0.000936 680.01239 1089.08435
976.0 0.001025 679.61298 986.34277
924.0 0.001082 679.21448 907.81598
869.0 0.001151 678.81720 850.17505
811.0 0.001233 678.42096 809.22241
788.0 0.001269 678.02557 780.76154
744.0 0.001344 677.63141 761.14380
750.0 0.001333 677.23816 747.50519
747.0 0.001339 676.84607 737.77582
729.0 0.001372 676.45490 730.55798
703.0 0.001422 676.06488 724.95917
738.0 0.001355 675.67584 720.43109
699.0 0.001431 675.28790 716.64532
705.0 0.001418 674.90106 713.40448
684.0 0.001462 674.51514 710.58545
696.0 0.001437 674.13043 708.10815
693.0 0.001443 673.74658 705.91638
693.0 0.001443 673.36401 703.96875
692.0 0.001445 672.98230 702.23206
673.0 0.001486 672.60181 700.68103
708.0 0.001412 672.22217 699.31805
680.0 0.001471 671.84381 698.07831
685.0 0.001460 671.46649 696.97125
685.0 0.001460 671.09003 695.98523
680.0 0.001471 670.71484 695.11108
697.0 0.001435 670.34058 694.34076
705.0 0.001418 669.96747 693.66888
679.0 0.001473 669.59534 693.09064
721.0 0.001387 669.22437 692.60321
717.0 0.001395 668.85449 692.20465
702.0 0.001425 668.48553 691.89392
680.0 0.001471 668.11780 691.67169
698.0 0.001433 667.75098 691.53931
687.0 0.001456 667.38531 691.50006
672.0 0.001488 667.02063 691.55743
695.0 0.001439 666.65717 691.71704
690.0 0.001449 666.29468 691.98584
694.0 0.001441 665.93329 692.37231
679.0 0.001473 665.57306 692.88708
683.0 0.001464 665.21375 693.54266
686.0 0.001458 664.85565 694.35504
684.0 0.001462 664.49847 695.34235
663.0 0.001508 664.14252 696.52777
660.0 0.001515 663.78748 697.93890
704.0 0.001420 663.43372 699.61017
732.0 0.001366 663.08087 701.58514
718.0 0.001393 662.72919 703.92212
720.0 0.001389 662.37860 706.70215
716.0 0.001397 662.02899 710.04517
685.0 0.001460 661.68060 714.19867
722.0 0.001385 661.33313 719.34198
721.0 0.001387 660.98688 726.02039
734.0 0.001362 660.64160 735.00946
772.0 0.001295 660.29749 747.51343
779.0 0.001284 659.95453 765.32452
805.0 0.001242 659.61243 790.97064
830.0 0.001205 659.27161 827.89539
858.0 0.001166 658.93176 880.00134
909.0 0.001100 658.59308 951.93335
1021.0 0.000979 658.25543 1048.08020
1160.0 0.000862 657.91895 1171.73169
1318.0 0.000759 657.58337 1323.85071
1497.0 0.000668 657.24908 1501.68994
1741.0 0.000574 656.91583 1697.50073
1987.0 0.000503 656.58356 1897.84180
2136.0 0.000468 656.25256 2084.20483
2292.0 0.000436 655.92242 2235.13062
2357.0 0.000424 655.59357 2329.01050
2414.0 0.000414 655.26569 2348.14771
2451.0 0.000408 654.93896 2285.73804
2254.0 0.000444 654.61328 2151.46021
2088.0 0.000479 654.28876 1968.21448
1879.0 0.000532 653.96533 1762.44360
1668.0 0.000600 653.64288 1556.63062
1451.0 0.000689 653.32166 1366.72034
1231.0 0.000812 653.00140 1202.26013
1125.0 0.000889 652.68231 1067.35974
1009.0 0.000991 652.36426 961.89850
919.0 0.001088 652.04736 882.87109
838.0 0.001193 651.73163 825.72235
792.0 0.001263 651.41681 785.48254
762.0 0.001312 651.10321 757.56268
719.0 0.001391 650.79065 738.18304
698.0 0.001433 650.47919 724.49634
700.0 0.001429 650.16882 714.50842
725.0 0.001379 649.85962 706.90491
693.0 0.001443 649.55139 700.85883
693.0 0.001443 649.24432 695.86627
693.0 0.001443 648.93842 691.62421
682.0 0.001466 648.63348 687.94464
667.0 0.001499 648.32977 684.70935
673.0 0.001486 648.02698 681.83728
680.0 0.001471 647.72546 679.26953
674.0 0.001484 647.42487 676.96124
674.0 0.001484 647.12555 674.87616
668.0 0.001497 646.82715 672.98523
647.0 0.001546 646.53003 671.26416
672.0 0.001488 646.23395 669.69257
678.0 0.001475 645.93884 668.25317
662.0 0.001511 645.64496 666.93182
659.0 0.001517 645.35211 665.71582
659.0 0.001517 645.06042 664.59540
654.0 0.001529 644.76971 663.56116
645.0 0.001550 644.48029 662.60638
664.0 0.001506 644.19183 661.72424
650.0 0.001538 643.90442 660.91003
630.0 0.001587 643.61823 660.15918
642.0 0.001558 643.33307 659.46826
655.0 0.001527 643.04901 658.83472
650.0 0.001538 642.76599 658.25653
660.0 0.001515 642.48419 657.73279
660.0 0.001515 642.20337 657.26239
647.0 0.001546 641.92371 656.84589
670.0 0.001493 641.64520 656.48438
656.0 0.001524 641.36768 656.17926
690.0 0.001449 641.09137 655.93359
654.0 0.001529 640.81598 655.75061
666.0 0.001502 640.54187 655.63568
654.0 0.001529 640.26868 655.59546
639.0 0.001565 639.99670 655.63843
667.0 0.001499 639.72577 655.77692
629.0 0.001590 639.45599 656.02826
685.0 0.001460 639.18732 656.41840
660.0 0.001515 638.91962 656.98749
665.0 0.001504 638.65314 657.80090
683.0 0.001464 638.38763 658.96405
631.0 0.001585 638.12329 660.64630
651.0 0.001536 637.85999 663.11029
646.0 0.001548 637.59784 666.74866
657.0 0.001522 637.33685 672.16913
658.0 0.001520 637.07678 680.00922
706.0 0.001416 636.81793 691.23303
693.0 0.001443 636.56012 706.86615
734.0 0.001362 636.30341 727.91620
744.0 0.001344 636.04773 755.17206
822.0 0.001217 635.79327 788.93512
820.0 0.001220 635.53973 828.71521
886.0 0.001129 635.28748 872.93622
909.0 0.001100 635.03625 918.74597
956.0 0.001046 634.78601 962.08551
994.0 0.001006 634.53699 998.10516
1036.0 0.000965 634.28894 1021.80688
989.0 0.001011 634.04205 1028.93835
996.0 0.001004 633.79614 1017.47913
985.0 0.001015 633.55145 989.03241
955.0 0.001047 633.30774 948.42432
869.0 0.001151 633.06525 901.64484
859.0 0.001164 632.82379 854.00165
805.0 0.001242 632.58331 809.37762
766.0 0.001305 632.34406 770.19537
725.0 0.001379 632.10577 737.61237
698.0 0.001433 631.86865 711.78259
644.0 0.001553 631.63257 692.14832
664.0 0.001506 631.39758 677.74188
671.0 0.001490 631.16376 667.44891
663.0 0.001508 630.93085 660.20398
653.0 0.001531 630.69916 655.10571
647.0 0.001546 630.46844 651.45782
649.0 0.001541 630.23889 648.76263
636.0 0.001572 630.01031 646.68549
635.0 0.001575 629.78296 645.01221
613.0 0.001631 629.55652 643.61102
635.0 0.001575 629.33130 642.40173
629.0 0.001590 629.10712 641.33527
662.0 0.001511 628.88391 640.38055
619.0 0.001616 628.66193 639.51746
621.0 0.001610 628.44086 638.73065
610.0 0.001639 628.22101 638.00928
615.0 0.001626 628.00214 637.34448
634.0 0.001577 627.78436 636.72925
624.0 0.001603 627.56763 636.15759
632.0 0.001582 627.35205 635.62482
628.0 0.001592 627.13751 635.12671
633.0 0.001580 626.92401 634.65991
623.0 0.001605 626.71161 634.22174
640.0 0.001563 626.50018 633.80945
616.0 0.001623 626.28992 633.42139
609.0 0.001642 626.08069 633.05597
625.0 0.001600 625.87250 632.71149
644.0 0.001553 625.66547 632.38757
640.0 0.001563 625.45941 632.08252
619.0 0.001616 625.25446 631.79675
631.0 0.001585 625.05048 631.52924
626.0 0.001597 624.84766 631.28064
612.0 0.001634 624.64581 631.05042
622.0 0.001608 624.44513 630.83960
614.0 0.001629 624.24542 630.64850
620.0 0.001613 624.04681 630.47833
615.0 0.001626 623.84924 630.33038
602.0 0.001661 623.65271 630.20636
624.0 0.001603 623.45728 630.10870
616.0 0.001623 623.26282 630.04028
590.0 0.001695 623.06946 630.00464
610.0 0.001639 622.87714 630.00732
618.0 0.001618 622.68591 630.05530
640.0 0.001563 622.49567 630.15918
613.0 0.001631 622.30652 630.33588
630.0 0.001587 622.11847 630.61255
632.0 0.001582 621.93134 631.03253
630.0 0.001587 621.74536 631.66705
608.0 0.001645 621.56030 632.62628
636.0 0.001572 621.37640 634.07666
656.0 0.001524 621.19348 636.25525
615.0 0.001626 621.01166 639.47980
625.0 0.001600 620.83087 644.14423
655.0 0.001527 620.65106 650.69409
651.0 0.001536 620.47235 659.57135
661.0 0.001513 620.29456 671.12506
653.0 0.001531 620.11792 685.49805
707.0 0.001414 619.94226 702.49243
699.0 0.001431 619.76770 721.44397
697.0 0.001435 619.59406 741.13660
705.0 0.001418 619.42157 759.82483
752.0 0.001330 619.25006 775.40594
773.0 0.001294 619.07953 785.70807
791.0 0.001264 618.91010 788.89001
751.0 0.001332 618.74164 784.07489
748.0 0.001337 618.57422 771.93304
775.0 0.001290 618.40784 754.51599
739.0 0.001353 618.24249 734.38788
720.0 0.001389 618.07806 713.83752
682.0 0.001466 617.91479 694.55408
644.0 0.001553 617.75250 677.59949
624.0 0.001603 617.59119 663.48773
644.0 0.001553 617.43097 652.29468
655.0 0.001527 617.27167 643.78326
636.0 0.001572 617.11340 637.53564
659.0 0.001517 616.95612 633.06848
600.0 0.001667 616.79999 629.91956
622.0 0.001608 616.64478 627.69727
615.0 0.001626 616.49054 626.09943
608.0 0.001645 616.33734 624.91071
611.0 0.001637 616.18512 623.98615
629.0 0.001590 616.03400 623.23358
603.0 0.001658 615.88373 622.59607
611.0 0.001637 615.73456 622.03937
624.0 0.001603 615.58636 621.54285
606.0 0.001650 615.43915 621.09308
617.0 0.001621 615.29303 620.68182
648.0 0.001543 615.14777 620.30243
601.0 0.001664 615.00360 619.95026
636.0 0.001572 614.86035 619.62164
609.0 0.001642 614.71814 619.31366
622.0 0.001608 614.57690 619.02386
632.0 0.001582 614.43671 618.75012
626.0 0.001597 614.29742 618.49054
614.0 0.001629 614.15912 618.24347
595.0 0.001681 614.02191 618.00830
606.0 0.001650 613.88556 617.86633
613.0 0.001631 613.75024 617.65118
596.0 0.001678 613.61591 617.44458
621.0 0.001610 613.48254 617.24591
630.0 0.001587 613.35016 617.05457
636.0 0.001572 613.21875 616.86993
612.0 0.001634 613.08832 616.69159
622.0 0.001608 612.95886 616.51898
621.0 0.001610 612.83038 616.35181
602.0 0.001661 612.70282 616.19006
604.0 0.001656 612.57629 616.03302
599.0 0.001669 612.45068 615.88074
581.0 0.001721 612.32611 615.73297
629.0 0.001590 612.20239 615.58936
632.0 0.001582 612.07971 615.56396
613.0 0.001631 611.95801 615.42987
612.0 0.001634 611.83722 615.29956
580.0 0.001724 611.71735 615.02240
608.0 0.001645 611.59851 614.90015
617.0 0.001621 611.48059 614.78162
601.0 0.001664 611.36359 614.84131
604.0 0.001656 611.24756 614.73096
585.0 0.001709 611.13251 614.62427
615.0 0.001626 611.01837 614.52069
590.0 0.001695 610.90521 614.42090
635.0 0.001575 610.79297 614.32416
629.0 0.001590 610.68170 614.23096
611.0 0.001637 610.57129 614.14093
602.0 0.001661 610.46191 614.05432
596.0 0.001678 610.35339 613.97107
588.0 0.001701 610.24591 613.89136
595.0 0.001681 610.13928 613.81512
591.0 0.001692 610.03363 613.74231
598.0 0.001672 609.92889 613.67310
626.0 0.001597 609.82501 613.60748
633.0 0.001580 609.72217 613.54565
594.0 0.001684 609.62018 613.48755
613.0 0.001631 609.51910 613.43335
608.0 0.001645 609.41895 613.38318
631.0 0.001585 609.31976 613.33698
612.0 0.001634 609.22150 613.29504
602.0 0.001661 609.12408 613.25751
617.0 0.001621 609.02765 613.22449
614.0 0.001629 608.93207 613.19598
623.0 0.001605 608.83746 613.17273
618.0 0.001618 608.74371 613.15430
601.0 0.001664 608.65088 613.14111
639.0 0.001565 608.55896 613.13348
607.0 0.001647 608.46796 613.13147
626.0 0.001597 608.37787 613.13574
612.0 0.001634 608.28857 613.10760
592.0 0.001689 608.20032 613.12524
584.0 0.001712 608.11285 613.14941
585.0 0.001709 608.02631 613.18121
587.0 0.001704 607.94067 613.22076
592.0 0.001689 607.85590 613.26862
598.0 0.001672 607.77209 613.32550
617.0 0.001621 607.68909 613.39148
625.0 0.001600 607.60699 613.46759
608.0 0.001645 607.52576 613.55432
621.0 0.001610 607.44543 613.65259
623.0 0.001605 607.36597 613.76300
635.0 0.001575 607.28741 613.88666
584.0 0.001712 607.20966 614.02435
615.0 0.001626 607.13287 614.17749
603.0 0.001658 607.05688 614.34705
602.0 0.001661 606.98181 614.53448
630.0 0.001587 606.90759 614.74146
619.0 0.001616 606.83417 614.96954
601.0 0.001664 606.76166 615.22070
600.0 0.001667 606.69006 615.49707
607.0 0.001647 606.61926 615.80139
631.0 0.001585 606.54932 616.13599
615.0 0.001626 606.48029 616.50427
659.0 0.001517 606.41205 616.90961
619.0 0.001616 606.34467 617.35608
641.0 0.001560 606.27814 617.84863
653.0 0.001531 606.21246 618.39215
632.0 0.001582 606.14764 618.99323
611.0 0.001637 606.08362 619.65845
637.0 0.001570 606.02051 620.39630
627.0 0.001595 605.95819 621.21637
633.0 0.001580 605.89673 622.12994
652.0 0.001534 605.83606 623.15039
608.0 0.001645 605.77625 624.29327
600.0 0.001667 605.71722 625.57813
600.0 0.001667 605.65906 627.02850
631.0 0.001585 605.60175 628.67462
598.0 0.001672 605.54523 630.55658
630.0 0.001587 605.48956 632.73157
640.0 0.001563 605.43469 635.28357
648.0 0.001543 605.38062 638.34387
634.0 0.001577 605.32745 642.12103
640.0 0.001563 605.27496 646.94690
651.0 0.001536 605.22339 653.34344
667.0 0.001499 605.17255 662.10236
656.0 0.001524 605.12256 674.37640
709.0 0.001410 605.07336 691.75476
703.0 0.001422 605.02496 716.29102
721.0 0.001387 604.97742 750.43933
806.0 0.001241 604.93060 796.84882
837.0 0.001195 604.88458 857.99054
960.0 0.001042 604.83942 935.60938
1017.0 0.000983 604.79498 1030.04553
1149.0 0.000870 604.75134 1139.49512
1264.0 0.000791 604.70856 1259.33203
1455.0 0.000687 604.66644 1381.68652
1572.0 0.000636 604.62518 1495.63135
1601.0 0.000625 604.58472 1588.23926
1670.0 0.000599 604.54498 1646.58752
1682.0 0.000595 604.50604 1660.02673
1644.0 0.000608 604.46790 1624.90320
1617.0 0.000618 604.43048 1546.75879
1529.0 0.000654 604.39386 1438.57678
1384.0 0.000723 604.35803 1315.55225
1232.0 0.000812 604.32294 1190.88184
1142.0 0.000876 604.28857 1074.18115
1015.0 0.000985 604.25500 971.47424
931.0 0.001074 604.22217 885.68427
821.0 0.001218 604.19012 817.26282
772.0 0.001295 604.15881 764.89325
745.0 0.001342 604.12823 726.20850
720.0 0.001389 604.09845 698.43152
694.0 0.001441 604.06940 678.85992
672.0 0.001488 604.04108 665.16278
681.0 0.001468 604.01349 655.50372
670.0 0.001493 603.98669 648.53986
675.0 0.001481 603.96057 643.34698
648.0 0.001543 603.93518 639.32117
633.0 0.001580 603.91058 636.08118
648.0 0.001543 603.88666 633.39197
626.0 0.001597 603.86353 631.10870
632.0 0.001582 603.84100 629.15814
630.0 0.001587 603.81934 627.44196
621.0 0.001610 603.79828 625.93604
650.0 0.001538 603.77802 624.60925
619.0 0.001616 603.75842 623.43616
617.0 0.001621 603.73962 622.39734
634.0 0.001577 603.72144 621.47583
608.0 0.001645 603.70404 620.65906
603.0 0.001658 603.68726 619.93463
620.0 0.001613 603.67126 619.29388
630.0 0.001587 603.65594 618.72858
607.0 0.001647 603.64130 618.23193
603.0 0.001658 603.62738 617.79883
642.0 0.001558 603.61414 617.42438
624.0 0.001603 603.60156 617.10541
621.0 0.001610 603.58972 616.83899
592.0 0.001689 603.57855 616.62323
625.0 0.001600 603.56812 616.45636
647.0 0.001546 603.55829 616.33832
607.0 0.001647 603.54919 616.26929
604.0 0.001656 603.54077 616.24939
651.0 0.001536 603.53302 616.28082
618.0 0.001618 603.52588 616.36621
600.0 0.001667 603.51947 616.50891
634.0 0.001577 603.51373 616.71436
608.0 0.001645 603.50867 616.98914
656.0 0.001524 603.50421 617.34326
608.0 0.001645 603.50049 617.79138
614.0 0.001629 603.49738 618.35516
613.0 0.001631 603.49493 619.07013
618.0 0.001618 603.49316 619.99426
635.0 0.001575 603.49194 621.22205
629.0 0.001590 603.49152 622.90637
642.0 0.001558 603.49164 625.28363
632.0 0.001582 603.49243 628.70593
645.0 0.001550 603.49390 633.66870
647.0 0.001546 603.49597 640.82416
660.0 0.001515 603.49866 650.96442
665.0 0.001504 603.50201 664.95844
686.0 0.001458 603.50598 683.62964
706.0 0.001416 603.51062 707.57269
747.0 0.001339 603.51587 736.92401
791.0 0.001264 603.52173 771.11438
814.0 0.001229 603.52820 808.64709
861.0 0.001161 603.53528 846.96924
902.0 0.001109 603.54303 882.54462
975.0 0.001026 603.55133 911.21802
962.0 0.001040 603.56030 928.85040
944.0 0.001059 603.56982 932.24701
911.0 0.001098 603.58002 920.39514
918.0 0.001089 603.59076 895.23773
877.0 0.001140 603.60211 860.96851
869.0 0.001151 603.61407 822.37482
830.0 0.001205 603.62665 783.57562
777.0 0.001287 603.63977 747.56207
730.0 0.001370 603.65356 716.18390
756.0 0.001323 603.66785 690.29364
694.0 0.001441 603.68280 669.94794
661.0 0.001513 603.69830 654.64447
654.0 0.001529 603.71436 643.56702
647.0 0.001546 603.73102 635.79712
651.0 0.001536 603.74829 630.46765
622.0 0.001608 603.76611 626.85187
629.0 0.001590 603.78448 624.39191
612.0 0.001634 603.80347 622.69141
611.0 0.001637 603.82294 621.48468
612.0 0.001634 603.84302 620.60376
626.0 0.001597 603.86371 619.94495
677.0 0.001477 603.88489 619.44598
649.0 0.001541 603.90668 619.07025
657.0 0.001522 603.92896 618.54309
613.0 0.001631 603.95184 618.35468
624.0 0.001603 603.97528 618.24231
638.0 0.001567 603.99921 618.19885
655.0 0.001527 604.02368 618.21967
647.0 0.001546 604.04877 618.30164
648.0 0.001543 604.07428 618.44232
652.0 0.001534 604.10046 618.64081
647.0 0.001546 604.12708 618.89709
644.0 0.001553 604.15430 619.21136
626.0 0.001597 604.18201 619.58569
626.0 0.001597 604.21021 620.02209
633.0 0.001580 604.23895 620.52417
609.0 0.001642 604.26825 621.09613
650.0 0.001538 604.29803 621.74316
620.0 0.001613 604.32837 622.47211
641.0 0.001560 604.35913 623.29041
619.0 0.001616 604.39050 624.20801
624.0 0.001603 604.42236 625.23566
611.0 0.001637 604.45465 626.38702
608.0 0.001645 604.48755 627.67816
638.0 0.001567 604.52087 629.12854
621.0 0.001610 604.55469 630.76154
663.0 0.001508 604.58905 632.60706
643.0 0.001555 604.62384 634.70306
648.0 0.001543 604.65918 637.10144
654.0 0.001529 604.69495 639.87549
628.0 0.001592 604.73126 643.13635
669.0 0.001495 604.76801 647.05585
657.0 0.001522 604.80524 651.90820
660.0 0.001515 604.84302 658.12738
659.0 0.001517 604.88116 666.38751
681.0 0.001468 604.91986 677.70160
714.0 0.001401 604.95898 693.52460
760.0 0.001316 604.99860 715.83514
766.0 0.001305 605.03864 747.15234
826.0 0.001211 605.07916 790.43591
847.0 0.001181 605.12018 848.81891
911.0 0.001098 605.16162 925.20032
1002.0 0.000998 605.20349 1021.35779
1098.0 0.000911 605.24585 1137.50085
1235.0 0.000810 605.28864 1271.20178
1406.0 0.000711 605.33185 1416.69373
1542.0 0.000649 605.37555 1564.40405
1713.0 0.000584 605.41962 1701.14868
1803.0 0.000555 605.46417 1811.36328
1859.0 0.000538 605.50916 1879.45300
1905.0 0.000525 605.55457 1893.37854
1870.0 0.000535 605.60046 1849.27795
1789.0 0.000559 605.64673 1754.24377
1706.0 0.000586 605.69342 1623.83606
1569.0 0.000637 605.74054 1475.78748
1374.0 0.000728 605.78809 1325.63904
1214.0 0.000824 605.83600 1184.72571
1082.0 0.000924 605.88440 1060.22449
970.0 0.001031 605.93317 955.70587
876.0 0.001142 605.98236 871.84619
831.0 0.001203 606.03198 807.22437
807.0 0.001239 606.08197 759.14252
762.0 0.001312 606.13239 724.36804
735.0 0.001361 606.18317 699.70605
725.0 0.001379 606.23438 682.35950
691.0 0.001447 606.28595 670.09436
700.0 0.001429 606.33789 661.25281
666.0 0.001502 606.39026 654.67743
675.0 0.001481 606.44299 649.60046
650.0 0.001538 606.49615 645.53198
608.0 0.001645 606.54962 642.16614
665.0 0.001504 606.60352 639.31323
619.0 0.001616 606.65778 636.85345
629.0 0.001590 606.71240 634.70721
652.0 0.001534 606.76740 632.81964
637.0 0.001570 606.82275 631.15033
667.0 0.001499 606.87854 629.66754
628.0 0.001592 606.93457 628.34564
640.0 0.001563 606.99103 627.16376
619.0 0.001616 607.04785 626.10431
638.0 0.001567 607.10504 625.15295
639.0 0.001565 607.16254 624.29645
634.0 0.001577 607.22040 623.52448
645.0 0.001550 607.27856 622.82745
656.0 0.001524 607.33716 622.19757
637.0 0.001570 607.39606 621.62817
620.0 0.001613 607.45526 621.12689
625.0 0.001600 607.51483 620.66095
621.0 0.001610 607.57471 620.23920
613.0 0.001631 607.63495 619.85858
619.0 0.001616 607.69550 619.51459
627.0 0.001595 607.75635 619.20502
642.0 0.001558 607.81757 618.92706
619.0 0.001616 607.87909 618.67834
649.0 0.001541 607.94092 618.45734
626.0 0.001597 608.00305 618.26208
620.0 0.001613 608.06555 618.09149
620.0 0.001613 608.12830 617.94464
635.0 0.001575 608.19141 617.82153
619.0 0.001616 608.25476 617.72235
638.0 0.001567 608.31848 617.64905
644.0 0.001553 608.38245 617.60468
622.0 0.001608 608.44672 617.59589
613.0 0.001631 608.51129 617.63202
605.0 0.001653 608.57617 617.72815
634.0 0.001577 608.64136 617.91711
622.0 0.001608 608.70679 618.20142
618.0 0.001618 608.77252 618.62567
635.0 0.001575 608.83850 619.22491
633.0 0.001580 608.90479 620.03210
623.0 0.001605 608.97137 621.07068
595.0 0.001681 609.03815 622.34528
610.0 0.001639 609.10529 623.83374
648.0 0.001543 609.17267 625.47620
628.0 0.001592 609.24030 627.17157
639.0 0.001565 609.30823 628.77545
623.0 0.001605 609.37634 630.11548
629.0 0.001590 609.44476 631.01355
607.0 0.001647 609.51343 631.32611
639.0 0.001565 609.58240 631.02899
628.0 0.001592 609.65155 630.11737
637.0 0.001570 609.72101 628.78906
622.0 0.001608 609.79065 627.24396
628.0 0.001592 609.86060 625.66101
613.0 0.001631 609.93073 624.17480
649.0 0.001541 610.00110 622.87311
641.0 0.001560 610.07172 621.80170
640.0 0.001563 610.14258 620.97284
628.0 0.001592 610.21368 620.37360
618.0 0.001618 610.28497 619.97491
602.0 0.001661 610.35657 619.74109
618.0 0.001618 610.42828 619.63568
608.0 0.001645 610.50024 619.62726
628.0 0.001592 610.57245 619.69006
603.0 0.001658 610.64490 619.80518
629.0 0.001590 610.71753 619.95978
603.0 0.001658 610.79034 620.14539
620.0 0.001613 610.86340 620.35730
640.0 0.001563 610.93665 620.59241
638.0 0.001567 611.01007 620.85016
602.0 0.001661 611.08374 621.12988
597.0 0.001675 611.15753 621.43243
606.0 0.001650 611.23157 621.75848
616.0 0.001623 611.30579 622.10895
592.0 0.001689 611.38025 622.48608
606.0 0.001650 611.45483 622.90558
583.0 0.001715 611.52966 623.34125
623.0 0.001605 611.60461 623.80969
626.0 0.001597 611.67975 624.31396
611.0 0.001637 611.75507 624.85748
604.0 0.001656 611.83057 625.44409
597.0 0.001675 611.90625 626.07813
626.0 0.001597 611.98212 626.84698
640.0 0.001563 612.05811 627.59351
652.0 0.001534 612.13428 628.40558
648.0 0.001543 612.21063 629.29126
631.0 0.001585 612.28711 630.26001
620.0 0.001613 612.36371 631.32251
648.0 0.001543 612.44055 632.49207
615.0 0.001626 612.51752 633.78363
609.0 0.001642 612.59467 635.21582
610.0 0.001639 612.67188 636.81177
626.0 0.001597 612.74927 638.60022
643.0 0.001555 612.82684 640.61987
629.0 0.001590 612.90454 642.92480
642.0 0.001558 612.98236 645.59442
655.0 0.001527 613.06024 648.75165
648.0 0.001543 613.13837 652.58984
647.0 0.001546 613.21655 657.41547
631.0 0.001585 613.29492 663.70544
678.0 0.001475 613.37341 672.18268
683.0 0.001464 613.45197 683.89673
662.0 0.001511 613.53070 700.29706
694.0 0.001441 613.60956 723.26605
738.0 0.001355 613.68848 755.07404
747.0 0.001339 613.76752 798.21570
786.0 0.001272 613.84668 855.09674
884.0 0.001131 613.92596 927.56921
950.0 0.001053 614.00537 1016.34338
1098.0 0.000911 614.08484 1120.34143
1242.0 0.000805 614.16443 1236.07629
1370.0 0.000730 614.24408 1357.16675
1437.0 0.000696 614.32385 1474.20142
1587.0 0.000630 614.40375 1575.27954
1668.0 0.000600 614.48370 1647.49646
1741.0 0.000574 614.56378 1679.46423
1762.0 0.000568 614.64392 1664.83447
1643.0 0.000609 614.72412 1605.45715
1584.0 0.000631 614.80444 1511.22925
1424.0 0.000702 614.88483 1396.09973
1282.0 0.000780 614.96527 1273.57910
1220.0 0.000820 615.04584 1154.34436
1084.0 0.000923 615.12646 1045.72864
964.0 0.001037 615.20709 951.99536
904.0 0.001106 615.28790 874.83459
804.0 0.001244 615.36865 813.94623
774.0 0.001292 615.44958 767.67529
729.0 0.001372 615.53052 733.63110
706.0 0.001416 615.61151 709.21301
714.0 0.001401 615.69257 691.98767
683.0 0.001464 615.77362 679.90234
700.0 0.001429 615.85480 671.36249
669.0 0.001495 615.93597 665.20795
655.0 0.001527 616.01727 660.64233
643.0 0.001555 616.09857 657.14233
692.0 0.001445 616.17993 654.37634
688.0 0.001453 616.26129 652.13751
666.0 0.001502 616.34265 650.29688
636.0 0.001572 616.42413 648.77301
648.0 0.001543 616.50562 647.51147
639.0 0.001565 616.58716 646.47473
617.0 0.001621 616.66864 645.63525
620.0 0.001613 616.75024 644.97247
656.0 0.001524 616.83185 644.47046
652.0 0.001534 616.91345 644.11731
646.0 0.001548 616.99506 643.90344
631.0 0.001585 617.07672 643.82281
644.0 0.001553 617.15839 643.87085
622.0 0.001608 617.24005 644.04590
650.0 0.001538 617.32178 644.34790
650.0 0.001538 617.40344 644.77887
649.0 0.001541 617.48517 645.34320
646.0 0.001548 617.56683 646.04767
604.0 0.001656 617.64856 646.90070
631.0 0.001585 617.73022 647.91479
625.0 0.001600 617.81195 649.10443
626.0 0.001597 617.89362 650.48883
626.0 0.001597 617.97534 652.09222
638.0 0.001567 618.05701 653.94586
636.0 0.001572 618.13867 656.09174
679.0 0.001473 618.22034 658.58795
664.0 0.001506 618.30194 661.52051
674.0 0.001484 618.38354 665.01898
682.0 0.001466 618.46515 669.28687
649.0 0.001541 618.54669 674.64313
682.0 0.001466 618.62830 681.58551
690.0 0.001449 618.70978 690.86792
693.0 0.001443 618.79126 703.59534
699.0 0.001431 618.87274 721.30908
703.0 0.001422 618.95416 746.04456
749.0 0.001335 619.03552 780.31378
776.0 0.001289 619.11688 826.97040
830.0 0.001205 619.19818 888.91730
907.0 0.001103 619.27948 968.64148
1002.0 0.000998 619.36066 1067.59692
1122.0 0.000891 619.44183 1185.49121
1293.0 0.000773 619.52301 1319.55518
1400.0 0.000714 619.60406 1463.89429
1590.0 0.000629 619.68506 1609.08203
1734.0 0.000577 619.76605 1742.30884
1867.0 0.000536 619.84692 1848.50842
1960.0 0.000510 619.92780 1912.73877
1955.0 0.000512 620.00861 1923.88306
1882.0 0.000531 620.08936 1878.96936
1783.0 0.000561 620.16998 1785.26318
1663.0 0.000601 620.25055 1657.55066
1552.0 0.000644 620.33105 1512.61987
1435.0 0.000697 620.41150 1365.05042
1239.0 0.000807 620.49194 1225.62695
1115.0 0.000897 620.57220 1101.32190
1033.0 0.000968 620.65240 995.78851
918.0 0.001089 620.73254 909.98706
828.0 0.001208 620.81262 842.87915
783.0 0.001277 620.89258 792.14758
736.0 0.001359 620.97253 754.86505
736.0 0.001359 621.05231 728.03058
696.0 0.001437 621.13202 708.93311
685.0 0.001460 621.21161 695.33820
709.0 0.001410 621.29114 685.53619
677.0 0.001477 621.37061 678.29608
682.0 0.001466 621.44989 672.77612
675.0 0.001481 621.52911 668.42419
629.0 0.001590 621.60822 664.88788
659.0 0.001517 621.68732 661.94537
636.0 0.001572 621.76617 659.45551
634.0 0.001577 621.84497 657.32751
649.0 0.001541 621.92371 655.49866
663.0 0.001508 622.00226 653.92480
637.0 0.001570 622.08075 652.57269
639.0 0.001565 622.15912 651.41595
631.0 0.001585 622.23737 650.43445
654.0 0.001529 622.31549 649.61169
647.0 0.001546 622.39343 648.99194
636.0 0.001572 622.47131 648.45013
649.0 0.001541 622.54907 648.03528
642.0 0.001558 622.62671 647.74213
641.0 0.001560 622.70416 647.56653
646.0 0.001548 622.78156 647.50726
666.0 0.001502 622.85876 647.56427
618.0 0.001618 622.93585 647.73956
637.0 0.001570 623.01276 648.03766
641.0 0.001560 623.08960 648.46478
657.0 0.001522 623.16626 649.03094
638.0 0.001567 623.24280 649.74835
634.0 0.001577 623.31921 650.79059
637.0 0.001570 623.39545 651.87219
640.0 0.001563 623.47156 653.18359
644.0 0.001553 623.54742 654.77856
635.0 0.001575 623.62323 656.74182
659.0 0.001517 623.69885 659.20624
672.0 0.001488 623.77435 662.38257
662.0 0.001511 623.84967 666.59894
684.0 0.001462 623.92480 672.35120
715.0 0.001399 623.99982 680.36035
684.0 0.001462 624.07465 691.62122
716.0 0.001397 624.14935 707.43024
732.0 0.001366 624.22388 729.35986
750.0 0.001333 624.29816 759.15497
772.0 0.001295 624.37238 798.53143
827.0 0.001209 624.44635 848.86829
891.0 0.001122 624.52014 910.81757
994.0 0.001006 624.59381 983.86682
1144.0 0.000874 624.66730 1065.91357
1236.0 0.000809 624.74054 1152.90515
1322.0 0.000756 624.81366 1238.66333
1464.0 0.000683 624.88660 1315.09497
1555.0 0.000643 624.95935 1373.03943
1610.0 0.000621 625.03192 1403.90881
1605.0 0.000623 625.10425 1402.09216
1536.0 0.000651 625.17645 1367.36963
1462.0 0.000684 625.24841 1305.45764
1318.0 0.000759 625.32025 1225.74683
1257.0 0.000796 625.39185 1138.05762
1073.0 0.000932 625.46326 1050.56006
1003.0 0.000997 625.53442 969.13190
931.0 0.001074 625.60547 897.44562
874.0 0.001144 625.67627 837.27399
775.0 0.001290 625.74689 788.86908
761.0 0.001314 625.81726 751.38330
756.0 0.001323 625.88745 723.30011
728.0 0.001374 625.95746 702.82416
696.0 0.001437 626.02722 688.17871
691.0 0.001447 626.09680 677.79980
674.0 0.001484 626.16614 670.42395
650.0 0.001538 626.23529 665.10181
654.0 0.001529 626.30420 661.15955
652.0 0.001534 626.37292 658.14288
658.0 0.001520 626.44141 655.75635
629.0 0.001590 626.50964 653.81354
636.0 0.001572 626.57770 652.19690
660.0 0.001515 626.64551 650.83270
658.0 0.001520 626.71313 649.67236
662.0 0.001511 626.78052 648.68274
637.0 0.001570 626.84760 647.85889
658.0 0.001520 626.91455 647.14587
612.0 0.001634 626.98120 647.18701
648.0 0.001543 627.04767 646.70135
661.0 0.001513 627.11389 646.31195
667.0 0.001499 627.17987 646.01184
620.0 0.001613 627.24554 645.79633
627.0 0.001595 627.31104 645.66187
639.0 0.001565 627.37634 645.60657
632.0 0.001582 627.44135 645.62964
625.0 0.001600 627.50610 645.73138
613.0 0.001631 627.57062 645.91406
647.0 0.001546 627.63495 646.18121
625.0 0.001600 627.69891 646.53735
649.0 0.001541 627.76270 646.98969
633.0 0.001580 627.82623 647.54834
655.0 0.001527 627.88953 648.22614
643.0 0.001555 627.95251 649.04163
639.0 0.001565 628.01532 650.02118
647.0 0.001546 628.07782 651.20618
655.0 0.001527 628.14008 652.65875
636.0 0.001572 628.20203 654.47668
643.0 0.001555 628.26379 656.81281
642.0 0.001558 628.32520 659.89996
624.0 0.001603 628.38641 664.08380
645.0 0.001550 628.44733 669.85638
665.0 0.001504 628.50806 677.88409
667.0 0.001499 628.56842 689.01703
709.0 0.001410 628.62860 704.26666
699.0 0.001431 628.68842 724.73187
758.0 0.001319 628.74805 751.46729
760.0 0.001316 628.80731 785.29010
797.0 0.001255 628.86633 826.54169
862.0 0.001160 628.92511 874.82410
968.0 0.001033 628.98358 928.74084
1012.0 0.000988 629.04181 985.68042
1108.0 0.000903 629.09973 1041.69373
1169.0 0.000855 629.15741 1091.60901
1184.0 0.000845 629.21472 1129.54810
1246.0 0.000803 629.27179 1149.98206
1219.0 0.000820 629.32861 1149.28186
1196.0 0.000836 629.38513 1127.25037
1158.0 0.000864 629.44135 1087.46826
1144.0 0.000874 629.49725 1035.88940
1021.0 0.000979 629.55292 978.79865
968.0 0.001033 629.60822 921.46460
923.0 0.001083 629.66327 867.71460
835.0 0.001198 629.71802 819.98254
769.0 0.001300 629.77246 779.50745
754.0 0.001326 629.82666 746.56451
724.0 0.001381 629.88049 720.71802
692.0 0.001445 629.93408 701.08105
673.0 0.001486 629.98737 686.55310
662.0 0.001511 630.04034 676.01208
662.0 0.001511 630.09296 668.44250
648.0 0.001543 630.14532 663.00403
656.0 0.001524 630.19739 659.04816
678.0 0.001475 630.24908 656.10321
641.0 0.001560 630.30054 653.84406
635.0 0.001575 630.35168 652.05341
659.0 0.001517 630.40253 650.59125
626.0 0.001597 630.45300 649.36835
654.0 0.001529 630.50317 648.32739
644.0 0.001553 630.55310 647.43097
633.0 0.001580 630.60260 646.65363
653.0 0.001531 630.65186 646.15088
646.0 0.001548 630.70081 645.56268
645.0 0.001550 630.74945 645.05017
650.0 0.001538 630.79773 644.60449
641.0 0.001560 630.84570 644.21899
670.0 0.001493 630.89337 643.88708
613.0 0.001631 630.94067 643.60425
636.0 0.001572 630.98767 643.36646
599.0 0.001669 631.03436 643.17084
622.0 0.001608 631.08075 643.01447
650.0 0.001538 631.12677 642.89569
634.0 0.001577 631.17249 642.81299
652.0 0.001534 631.21783 642.76587
628.0 0.001592 631.26288 642.75403
660.0 0.001515 631.30756 642.77838
618.0 0.001618 631.35199 642.84027
613.0 0.001631 631.39600 642.94196
637.0 0.001570 631.43970 643.08838
625.0 0.001600 631.48309 643.28528
632.0 0.001582 631.52612 643.54498
637.0 0.001570 631.56885 643.88452
630.0 0.001587 631.61121 644.33240
615.0 0.001626 631.65326 644.93280
621.0 0.001610 631.69495 645.75195
631.0 0.001585 631.73627 646.88556
611.0 0.001637 631.77728 648.46698
623.0 0.001605 631.81793 650.77380
660.0 0.001515 631.85828 653.80859
654.0 0.001529 631.89825 657.91235
646.0 0.001548 631.93787 663.32263
644.0 0.001553 631.97717 670.24072
667.0 0.001499 632.01611 678.78070
673.0 0.001486 632.05469 688.91296
705.0 0.001418 632.09296 700.40784
666.0 0.001502 632.13086 712.78448
700.0 0.001429 632.16840 725.27710
693.0 0.001443 632.20557 736.83746
725.0 0.001379 632.24237 746.21600
716.0 0.001397 632.27887 752.15149
727.0 0.001376 632.31500 753.67999
715.0 0.001399 632.35077 750.49225
700.0 0.001429 632.38623 743.11560
707.0 0.001414 632.42126 732.72052
698.0 0.001433 632.45599 720.68842
681.0 0.001468 632.49030 708.25531
672.0 0.001488 632.52429 696.36224
676.0 0.001479 632.55792 685.64093
644.0 0.001553 632.59119 676.44763
651.0 0.001536 632.62408 668.91046
629.0 0.001590 632.65662 662.98236
641.0 0.001560 632.68884 658.49823
667.0 0.001499 632.72064 655.22931
651.0 0.001536 632.75208 652.92834
636.0 0.001572 632.78320 651.36456
638.0 0.001567 632.81390 650.34082
619.0 0.001616 632.84424 649.70300
658.0 0.001520 632.87427 649.33649
656.0 0.001524 632.90387 649.16180
675.0 0.001481 632.93311 649.12604
663.0 0.001508 632.96198 649.19635
640.0 0.001563 632.99048 649.35162
636.0 0.001572 633.01862 649.58057
624.0 0.001603 633.04639 649.87646
616.0 0.001623 633.07379 650.23669
639.0 0.001565 633.10083 650.70520
660.0 0.001515 633.12750 651.19293
647.0 0.001546 633.15375 651.74701
633.0 0.001580 633.17963 652.37085
658.0 0.001520 633.20514 653.06927
651.0 0.001536 633.23029 653.84711
627.0 0.001595 633.25507 654.71210
666.0 0.001502 633.27948 655.67218
694.0 0.001441 633.30347 656.73718
658.0 0.001520 633.32709 657.91937
634.0 0.001577 633.35034 659.23230
638.0 0.001567 633.37323 660.69342
645.0 0.001550 633.39575 662.32208
633.0 0.001580 633.41785 664.14337
643.0 0.001555 633.43958 666.18762
671.0 0.001490 633.46094 668.49408
667.0 0.001499 633.48193 671.11542
685.0 0.001460 633.50250 674.12677
638.0 0.001567 633.52271 677.63904
666.0 0.001502 633.54248 681.82361
707.0 0.001414 633.56195 686.94830
662.0 0.001511 633.58099 693.43311
709.0 0.001410 633.59967 701.92255
701.0 0.001427 633.61792 713.37762
717.0 0.001395 633.63580 729.17389
748.0 0.001337 633.65326 751.18341
783.0 0.001277 633.67041 781.80560
807.0 0.001239 633.68713 823.90265
870.0 0.001149 633.70343 880.59308
909.0 0.001100 633.71942 954.87262
957.0 0.001045 633.73499 1049.06006
1083.0 0.000923 633.75012 1164.11206
1207.0 0.000829 633.76489 1298.87854
1395.0 0.000717 633.77930 1449.38782
1548.0 0.000646 633.79327 1608.26147
1772.0 0.000564 633.80682 1764.41272
1925.0 0.000519 633.82007 1903.37329
2018.0 0.000496 633.83289 2008.75439
2106.0 0.000475 633.84528 2065.22827
2029.0 0.000493 633.85730 2062.91064
1991.0 0.000502 633.86896 2001.41833
1868.0 0.000535 633.88019 1890.77344
1728.0 0.000579 633.89105 1747.39905
1585.0 0.000631 633.90149 1588.61816
1425.0 0.000702 633.91150 1429.04431
1285.0 0.000778 633.92114 1279.38745
1114.0 0.000898 633.93042 1146.52795
1052.0 0.000951 633.93927 1033.99609
920.0 0.001087 633.94775 942.59241
854.0 0.001171 633.95581 871.09167
803.0 0.001245 633.96350 816.98187
776.0 0.001289 633.97076 777.14789
765.0 0.001307 633.97766 748.36652
727.0 0.001376 633.98413 727.87823
705.0 0.001418 633.99017 713.27094
670.0 0.001493 633.99585 702.73090
696.0 0.001437 634.00116 694.94696
698.0 0.001433 634.00604 689.01678
683.0 0.001464 634.01050 684.34528
666.0 0.001502 634.01459 680.55023
676.0 0.001479 634.01825 677.38995
672.0 0.001488 634.02155 674.71240
676.0 0.001479 634.02441 672.41797
682.0 0.001466 634.02686 670.44012
706.0 0.001416 634.02893 668.73163
678.0 0.001475 634.03064 667.25745
667.0 0.001499 634.03192 665.99060
680.0 0.001471 634.03278 664.91003
632.0 0.001582 634.03320 663.99884
649.0 0.001541 634.03326 663.24384
659.0 0.001517 634.03296 662.63507
675.0 0.001481 634.03223 662.16449
674.0 0.001484 634.03107 661.82751
667.0 0.001499 634.02954 661.62140
654.0 0.001529 634.02759 661.54572
664.0 0.001506 634.02521 661.60284
652.0 0.001534 634.02246 661.79773
659.0 0.001517 634.01929 662.13861
698.0 0.001433 634.01575 662.63879
661.0 0.001513 634.01178 663.31805
678.0 0.001475 634.00739 664.20734
672.0 0.001488 634.00262 665.35516
678.0 0.001475 633.99744 666.83826
693.0 0.001443 633.99182 668.78076
695.0 0.001439 633.98584 671.54156
696.0 0.001437 633.97949 675.09515
704.0 0.001420 633.97266 680.05200
661.0 0.001513 633.96545 687.04993
691.0 0.001447 633.95782 696.94891
742.0 0.001348 633.94983 710.83929
723.0 0.001383 633.94141 730.00055
762.0 0.001312 633.93262 755.79700
773.0 0.001294 633.92334 789.49323
765.0 0.001307 633.91376 832.00073
827.0 0.001209 633.90369 883.56982
904.0 0.001106 633.89325 943.46936
951.0 0.001052 633.88239 1009.69281
1050.0 0.000952 633.87115 1078.71460
1088.0 0.000919 633.85950 1145.36560
1141.0 0.000876 633.84741 1203.00354
1193.0 0.000838 633.83496 1244.31055
1268.0 0.000789 633.82208 1262.93799
1259.0 0.000794 633.80884 1255.60779
1230.0 0.000813 633.79517 1223.49780
1136.0 0.000880 633.78107 1171.83228
1075.0 0.000930 633.76654 1107.89136
1054.0 0.000949 633.75165 1038.87903
978.0 0.001022 633.73633 970.69324
903.0 0.001107 633.72064 907.57446
882.0 0.001134 633.70453 852.16754
799.0 0.001252 633.68805 805.72742
787.0 0.001271 633.67108 768.38770
774.0 0.001292 633.65381 739.47125
746.0 0.001340 633.63605 717.80945
734.0 0.001362 633.61792 702.02808
713.0 0.001403 633.59937 690.77185
683.0 0.001464 633.58044 682.84393
703.0 0.001422 633.56110 677.27594
706.0 0.001416 633.54138 673.33521
689.0 0.001451 633.52124 670.50000
675.0 0.001481 633.50067 668.41577
700.0 0.001429 633.47974 666.59857
699.0 0.001431 633.45837 665.41071
657.0 0.001522 633.43658 664.50696
662.0 0.001511 633.41443 663.83093
652.0 0.001534 633.39185 663.34778
666.0 0.001502 633.36890 663.06647
656.0 0.001524 633.34552 662.91003
649.0 0.001541 633.32178 662.90088
680.0 0.001471 633.29755 663.03345
660.0 0.001515 633.27301 663.30591
669.0 0.001495 633.24805 663.71844
672.0 0.001488 633.22266 664.27448
678.0 0.001475 633.19684 664.97943
656.0 0.001524 633.17065 665.84198
671.0 0.001490 633.14410 666.87335
701.0 0.001427 633.11713 668.08795
702.0 0.001425 633.08972 669.50507
686.0 0.001458 633.06195 671.14813
699.0 0.001431 633.03381 673.04816
703.0 0.001422 633.00519 675.24603
701.0 0.001427 632.97626 677.79913
678.0 0.001475 632.94684 680.78894
688.0 0.001453 632.91711 684.34076
710.0 0.001408 632.88690 688.64801
692.0 0.001445 632.85632 694.01410
696.0 0.001437 632.82538 700.90997
691.0 0.001447 632.79401 710.05121
729.0 0.001372 632.76227 722.48682
701.0 0.001427 632.73010 739.68774
745.0 0.001342 632.69757 763.60901
778.0 0.001285 632.66461 796.68665
796.0 0.001256 632.63129 841.73004
838.0 0.001193 632.59753 901.66803
902.0 0.001109 632.56342 979.13611
973.0 0.001028 632.52887 1075.92188
1041.0 0.000961 632.49396 1192.32666
1201.0 0.000833 632.45862 1326.53845
1295.0 0.000772 632.42291 1474.00366
1457.0 0.000686 632.38684 1627.00964
1652.0 0.000605 632.35034 1774.26050
1793.0 0.000558 632.31342 1900.95422
1883.0 0.000531 632.27618 1990.25903
1976.0 0.000506 632.23853 2027.35999
2001.0 0.000500 632.20044 2005.24939
2009.0 0.000498 632.16199 1928.18591
1945.0 0.000514 632.12317 1809.53857
1803.0 0.000555 632.08392 1666.12061
1677.0 0.000596 632.04431 1513.47998
1472.0 0.000679 632.00433 1363.84949
1375.0 0.000727 631.96393 1225.83728
1235.0 0.000810 631.92316 1104.74536
1054.0 0.000949 631.88196 1003.03796
1001.0 0.000999 631.84039 920.89801
914.0 0.001094 631.79846 856.85638
875.0 0.001143 631.75616 808.43701
810.0 0.001235 631.71344 772.74146
787.0 0.001271 631.67035 746.90063
721.0 0.001387 631.62683 728.36810
709.0 0.001410 631.58295 715.06427
715.0 0.001399 631.53876 705.39923
728.0 0.001374 631.49408 698.27362
719.0 0.001391 631.44910 692.83636
686.0 0.001458 631.40369 688.54205
702.0 0.001425 631.35791 685.08716
720.0 0.001389 631.31177 682.25647
690.0 0.001449 631.26520 679.91302
661.0 0.001513 631.21832 677.96838
692.0 0.001445 631.17096 676.36249
703.0 0.001422 631.12329 675.05518
650.0 0.001538 631.07526 674.01654
675.0 0.001481 631.02679 673.22540
699.0 0.001431 630.97803 672.66681
663.0 0.001508 630.92883 672.33008
678.0 0.001475 630.87927 672.20990
694.0 0.001441 630.82935 672.30475
687.0 0.001456 630.77899 672.61603
681.0 0.001468 630.72833 673.15039
642.0 0.001558 630.67725 673.91827
659.0 0.001517 630.62585 674.93524
692.0 0.001445 630.57404 676.22260
699.0 0.001431 630.52185 677.81091
668.0 0.001497 630.46930 679.74146
677.0 0.001477 630.41638 682.07440
691.0 0.001447 630.36310 684.89990
665.0 0.001504 630.30945 688.35583
698.0 0.001433 630.25543 692.66034
724.0 0.001381 630.20105 698.15454
698.0 0.001433 630.14624 705.36792
751.0 0.001332 630.09113 715.09912
744.0 0.001344 630.03564 728.50922
739.0 0.001353 629.97980 747.20721
731.0 0.001368 629.92358 773.30481
781.0 0.001280 629.86694 809.39307
781.0 0.001280 629.81000 858.40503
877.0 0.001140 629.75269 923.32452
959.0 0.001043 629.69507 1006.73193
978.0 0.001022 629.63696 1110.21545
1089.0 0.000918 629.57861 1233.71460
1263.0 0.000792 629.51984 1374.87415
1402.0 0.000713 629.46075 1528.47986
1603.0 0.000624 629.40125 1685.98230
1716.0 0.000583 629.34143 1835.17456
1872.0 0.000534 629.28125 1960.42798
2036.0 0.000491 629.22070 2044.56506
2115.0 0.000473 629.15979 2073.37109
2028.0 0.000493 629.09851 2041.38464
2029.0 0.000493 629.03693 1954.61450
1947.0 0.000514 628.97498 1827.54639
1814.0 0.000551 628.91266 1677.40344
1649.0 0.000606 628.85004 1519.64819
1478.0 0.000677 628.78699 1366.30212
1310.0 0.000763 628.72363 1225.73804
1188.0 0.000842 628.65991 1103.01440
1078.0 0.000928 628.59583 1000.35638
963.0 0.001038 628.53143 917.72723
918.0 0.001089 628.46667 853.47260
865.0 0.001156 628.40155 804.97827
814.0 0.001229 628.33612 769.25336
742.0 0.001348 628.27032 743.37628
751.0 0.001332 628.20416 724.77692
748.0 0.001337 628.13770 711.36951
714.0 0.001401 628.07086 701.56787
688.0 0.001453 628.00372 694.23114
710.0 0.001408 627.93622 688.57587
721.0 0.001387 627.86835 684.08319
684.0 0.001462 627.80017 680.41785
700.0 0.001429 627.73163 677.36725
675.0 0.001481 627.66278 674.79486
709.0 0.001410 627.59357 672.61182
719.0 0.001391 627.52405 670.67230
684.0 0.001462 627.45416 669.10596
720.0 0.001389 627.38403 667.79596
683.0 0.001464 627.31348 666.71936
672.0 0.001488 627.24261 665.85938
661.0 0.001513 627.17139 665.20337
689.0 0.001451 627.09985 664.74323
671.0 0.001490 627.02802 664.47467
686.0 0.001458 626.95581 664.39600
700.0 0.001429 626.88330 664.51068
677.0 0.001477 626.81049 664.82458
658.0 0.001520 626.73730 665.34906
716.0 0.001397 626.66382 666.10095
666.0 0.001502 626.59003 667.10529
683.0 0.001464 626.51587 668.39923
702.0 0.001425 626.44141 670.03900
679.0 0.001473 626.36664 672.11249
688.0 0.001453 626.29150 674.75665
687.0 0.001456 626.21613 678.18793
709.0 0.001410 626.14038 682.73950
735.0 0.001361 626.06433 688.91400
694.0 0.001441 625.98798 697.44147
719.0 0.001391 625.91125 709.33484
731.0 0.001368 625.83423 725.92792
734.0 0.001362 625.75690 748.86780
746.0 0.001340 625.67932 780.03839
808.0 0.001238 625.60132 821.39099
812.0 0.001232 625.52307 874.67102
868.0 0.001152 625.44452 941.05756
977.0 0.001024 625.36566 1020.74976
1000.0 0.001000 625.28650 1112.55225
1065.0 0.000939 625.20697 1213.50183
1281.0 0.000781 625.12720 1318.54443
1333.0 0.000750 625.04706 1420.28455
1466.0 0.000682 624.96667 1508.99561
1539.0 0.000650 624.88599 1573.47058
1612.0 0.000620 624.80493 1603.48706
1638.0 0.000611 624.72363 1593.55713
1588.0 0.000630 624.64203 1545.52405
1574.0 0.000635 624.56012 1467.64539
1458.0 0.000686 624.47791 1371.04309
1364.0 0.000733 624.39539 1266.40015
1273.0 0.000786 624.31256 1162.34631
1150.0 0.000870 624.22949 1065.11755
1059.0 0.000944 624.14612 978.71558
971.0 0.001030 624.06244 905.20264
914.0 0.001094 623.97845 845.04700
858.0 0.001166 623.89417 797.52094
775.0 0.001290 623.80963 761.12097
766.0 0.001305 623.72473 733.96124
752.0 0.001330 623.63965 714.09558
726.0 0.001377 623.55420 699.73944
718.0 0.001393 623.46851 689.39337
667.0 0.001499 623.38251 681.88184
675.0 0.001481 623.29620 676.33490
697.0 0.001435 623.20966 672.14038
678.0 0.001475 623.12280 668.88483
671.0 0.001490 623.03571 666.29730
662.0 0.001511 622.94824 664.20404
647.0 0.001546 622.86060 662.49451
681.0 0.001468 622.77264 661.09778
680.0 0.001471 622.68439 659.96777
670.0 0.001493 622.59589 659.07391
698.0 0.001433 622.50708 658.39502
650.0 0.001538 622.41803 657.91693
678.0 0.001475 622.32874 657.61841
667.0 0.001499 622.23914 657.51953
667.0 0.001499 622.14923 657.60657
668.0 0.001497 622.05908 657.88177
668.0 0.001497 621.96869 658.35138
660.0 0.001515 621.87805 659.02527
658.0 0.001520 621.78711 659.91803
686.0 0.001458 621.69586 661.08606
655.0 0.001527 621.60443 662.48541
678.0 0.001475 621.51270 664.19177
671.0 0.001490 621.42072 666.26294
701.0 0.001427 621.32843 668.78510
673.0 0.001486 621.23596 671.89215
664.0 0.001506 621.14319 675.79199
683.0 0.001464 621.05017 680.80835
674.0 0.001484 620.95691 687.43439
670.0 0.001493 620.86334 696.40167
695.0 0.001439 620.76959 708.75293
722.0 0.001385 620.67554 725.90741
706.0 0.001416 620.58124 749.68945
731.0 0.001368 620.48669 782.29498
779.0 0.001284 620.39191 826.15826
797.0 0.001255 620.29688 883.69653
847.0 0.001181 620.20160 956.93237
946.0 0.001057 620.10608 1047.01428
1037.0 0.000964 620.01031 1153.69519
1147.0 0.000872 619.91431 1274.82910
1285.0 0.000778 619.81805 1405.92566
1416.0 0.000706 619.72156 1539.77234
1535.0 0.000651 619.62482 1666.18030
1650.0 0.000606 619.52783 1772.19861
1784.0 0.000561 619.43066 1843.65991
1864.0 0.000536 619.33319 1868.82715
1844.0 0.000542 619.23553 1843.04773
1802.0 0.000555 619.13763 1771.00183
1748.0 0.000572 619.03949 1664.44104
1676.0 0.000597 618.94110 1537.54712
1522.0 0.000657 618.84253 1403.23511
1377.0 0.000726 618.74371 1271.69727
1221.0 0.000819 618.64459 1150.13538
1138.0 0.000879 618.54535 1043.03162
994.0 0.001006 618.44580 952.52405
937.0 0.001067 618.34613 878.85339
865.0 0.001156 618.24615 820.86658
821.0 0.001218 618.14600 776.53815
757.0 0.001321 618.04559 743.45325
727.0 0.001376 617.94495 719.16772
733.0 0.001364 617.84412 701.49017
706.0 0.001416 617.74304 688.59540
722.0 0.001385 617.64185 679.06482
683.0 0.001464 617.54034 671.85413
689.0 0.001451 617.43866 666.23108
650.0 0.001538 617.33673 661.70026
674.0 0.001484 617.23462 657.93683
666.0 0.001502 617.13232 654.72974
653.0 0.001531 617.02979 651.94269
641.0 0.001560 616.92706 649.48553
644.0 0.001553 616.82410 647.29706
623.0 0.001605 616.72095 645.33276
671.0 0.001490 616.61755 643.55975
662.0 0.001511 616.51404 641.95215
650.0 0.001538 616.41028 640.48840
625.0 0.001600 616.30634 639.15088
648.0 0.001543 616.20221 637.92505
641.0 0.001560 616.09784 636.79797
655.0 0.001527 615.99329 635.75909
638.0 0.001567 615.88855 634.79852
644.0 0.001553 615.78363 633.90851
632.0 0.001582 615.67853 633.08167
656.0 0.001524 615.57318 632.31183
653.0 0.001531 615.46771 631.59375
672.0 0.001488 615.36200 630.92255
670.0 0.001493 615.25616 630.32312
647.0 0.001546 615.15009 629.73352
624.0 0.001603 615.04382 629.22565
650.0 0.001538 614.93738 628.70471
628.0 0.001592 614.83081 628.21381
651.0 0.001536 614.72400 627.75073
647.0 0.001546 614.61707 627.31317
654.0 0.001529 614.50989 626.89972
609.0 0.001642 614.40259 626.50830
617.0 0.001621 614.29510 626.13757
628.0 0.001592 614.18738 625.78619
661.0 0.001513 614.07953 625.45325
643.0 0.001555 613.97150 625.13733
656.0 0.001524 613.86334 624.83783
626.0 0.001597 613.75494 624.55353
646.0 0.001548 613.64642 624.28418
644.0 0.001553 613.53778 624.02863
636.0 0.001572 613.42889 623.78668
641.0 0.001560 613.31989 623.55743
656.0 0.001524 613.21069 623.34106
626.0 0.001597 613.10138 623.13666
634.0 0.001577 612.99182 622.94403
629.0 0.001590 612.88220 622.76331
660.0 0.001515 612.77240 622.59387
657.0 0.001522 612.66241 622.43591
651.0 0.001536 612.55225 622.28931
630.0 0.001587 612.44196 622.15375
631.0 0.001585 612.33154 622.02960
641.0 0.001560 612.22095 621.91705
644.0 0.001553 612.11023 621.81616
601.0 0.001664 611.99933 621.72705
666.0 0.001502 611.88831 621.65521
622.0 0.001608 611.77710 621.59070
613.0 0.001631 611.66577 621.53937
641.0 0.001560 611.55432 621.50159
654.0 0.001529 611.44269 621.47797
630.0 0.001587 611.33099 621.46924
657.0 0.001522 611.21906 621.47650
626.0 0.001597 611.10706 621.50043
637.0 0.001570 610.99487 621.54211
650.0 0.001538 610.88257 621.60291
623.0 0.001605 610.77014 621.68445
633.0 0.001580 610.65759 621.78821
643.0 0.001555 610.54486 621.91620
614.0 0.001629 610.43201 622.07031
633.0 0.001580 610.31909 622.25323
656.0 0.001524 610.20599 622.46808
630.0 0.001587 610.09277 622.71777
649.0 0.001541 609.97949 623.00623
656.0 0.001524 609.86597 623.33740
638.0 0.001567 609.75244 623.71716
620.0 0.001613 609.63867 624.15112
612.0 0.001634 609.52490 624.64581
623.0 0.001605 609.41095 625.20953
629.0 0.001590 609.29688 625.85272
624.0 0.001603 609.18268 626.58771
641.0 0.001560 609.06842 627.43085
638.0 0.001567 608.95404 628.40411
650.0 0.001538 608.83948 629.53833
635.0 0.001575 608.72491 630.87982
625.0 0.001600 608.61011 632.49860
641.0 0.001560 608.49530 634.66711
656.0 0.001524 608.38031 637.21820
637.0 0.001570 608.26532 640.55914
626.0 0.001597 608.15015 645.04144
648.0 0.001543 608.03491 651.15417
677.0 0.001477 607.91956 659.54584
693.0 0.001443 607.80408 671.02826
678.0 0.001475 607.68854 686.55121
678.0 0.001475 607.57281 707.13617
727.0 0.001376 607.45709 733.75751
708.0 0.001412 607.34119 767.18268
723.0 0.001383 607.22528 807.77252
785.0 0.001274 607.10925 855.27551
861.0 0.001161 606.99310 908.62805
934.0 0.001071 606.87695 965.78271
970.0 0.001031 606.76062 1023.55334
1095.0 0.000913 606.64423 1077.52478
1106.0 0.000904 606.52771 1122.17847
1147.0 0.000872 606.41119 1151.60486
1205.0 0.000830 606.29449 1161.06836
1165.0 0.000858 606.17780 1148.87964
1145.0 0.000873 606.06104 1117.19360
1099.0 0.000910 605.94415 1071.00378
1054.0 0.000949 605.82721 1016.23999
999.0 0.001001 605.71014 958.30585
935.0 0.001070 605.59302 901.46149
851.0 0.001175 605.47583 848.74182
852.0 0.001174 605.35858 802.06311
755.0 0.001325 605.24121 762.37653
755.0 0.001325 605.12384 729.84662
741.0 0.001350 605.00641 704.26660
683.0 0.001464 604.88885 684.40442
688.0 0.001453 604.77124 669.48566
689.0 0.001451 604.65356 658.49451
671.0 0.001490 604.53583 650.49725
674.0 0.001484 604.41803 644.70349
657.0 0.001522 604.30017 640.48761
648.0 0.001543 604.18231 637.38153
665.0 0.001504 604.06433 635.05103
640.0 0.001563 603.94629 633.26721
633.0 0.001580 603.82819 631.87817
635.0 0.001575 603.71008 630.78613
614.0 0.001629 603.59186 629.92828
642.0 0.001558 603.47363 629.26471
662.0 0.001511 603.35535 628.77014
631.0 0.001585 603.23700 628.42902
619.0 0.001616 603.11865 628.23114
649.0 0.001541 603.00018 628.17126
651.0 0.001536 602.88171 628.24762
609.0 0.001642 602.76318 628.46118
622.0 0.001608 602.64465 628.81561
643.0 0.001555 602.52600 629.31775
626.0 0.001597 602.40735 629.97797
643.0 0.001555 602.28864 630.81104
654.0 0.001529 602.16998 631.83734
628.0 0.001592 602.05121 633.08636
636.0 0.001572 601.93243 634.60126
634.0 0.001577 601.81360 636.44696
678.0 0.001475 601.69470 638.72412
632.0 0.001582 601.57587 641.58862
642.0 0.001558 601.45691 645.27954
641.0 0.001560 601.33801 650.15924
674.0 0.001484 601.21906 656.75739
634.0 0.001577 601.10004 665.82068
667.0 0.001499 600.98102 678.35217
677.0 0.001477 600.86194 695.62805
675.0 0.001481 600.74292 719.16943
714.0 0.001401 600.62378 750.65015
740.0 0.001351 600.50470 791.71118
794.0 0.001259 600.38556 843.72510
833.0 0.001200 600.26642 907.46716
881.0 0.001135 600.14734 982.77332
1000.0 0.001000 600.02814 1068.20911
1062.0 0.000942 599.90894 1160.77917
1147.0 0.000872 599.78973 1255.68188
1274.0 0.000785 599.67059 1346.14124
1371.0 0.000729 599.55133 1423.50708
1472.0 0.000679 599.43213 1478.14319
1517.0 0.000659 599.31287 1501.63855
1554.0 0.000644 599.19366 1489.87976
1493.0 0.000670 599.07446 1444.93384
1430.0 0.000699 598.95520 1374.06836
1362.0 0.000734 598.83600 1286.81836
1253.0 0.000798 598.71674 1192.33398
1147.0 0.000872 598.59747 1098.16846
1043.0 0.000959 598.47821 1009.60333
992.0 0.001008 598.35901 930.32465
902.0 0.001109 598.23981 862.27496
838.0 0.001193 598.12061 806.01971
794.0 0.001259 598.00140 761.06854
759.0 0.001318 597.88214 726.21851
716.0 0.001397 597.76300 699.88580
705.0 0.001418 597.64380 680.38379
705.0 0.001418 597.52466 666.12512
673.0 0.001486 597.40546 655.74347
682.0 0.001466 597.28632 648.14081
652.0 0.001534 597.16724 642.48639
670.0 0.001493 597.04810 638.18048
631.0 0.001585 596.92908 634.80890
649.0 0.001541 596.80994 632.09430
620.0 0.001613 596.69092 629.85565
653.0 0.001531 596.57190 627.97577
621.0 0.001610 596.45294 626.37921
633.0 0.001580 596.33392 625.01611
630.0 0.001587 596.21497 623.85266
630.0 0.001587 596.09607 622.86517
616.0 0.001623 595.97717 622.03705
616.0 0.001623 595.85834 621.35638
614.0 0.001629 595.73950 620.81445
601.0 0.001664 595.62073 620.40588
610.0 0.001639 595.50195 620.12811
596.0 0.001678 595.38324 619.98169
638.0 0.001567 595.26453 619.97009
641.0 0.001560 595.14587 620.10168
636.0 0.001572 595.02728 620.38989
605.0 0.001653 594.90869 620.85828
612.0 0.001634 594.79016 621.54395
593.0 0.001686 594.67163 622.50525
641.0 0.001560 594.55322 623.83447
596.0 0.001678 594.43481 625.67181
620.0 0.001613 594.31647 628.22662
606.0 0.001650 594.19818 631.79895
643.0 0.001555 594.07990 636.80426
632.0 0.001582 593.96167 643.77582
652.0 0.001534 593.84351 653.38397
669.0 0.001495 593.72540 666.39667
693.0 0.001443 593.60730 683.62585
669.0 0.001495 593.48932 705.82959
718.0 0.001393 593.37134 733.58246
745.0 0.001342 593.25348 767.12006
773.0 0.001294 593.13568 806.17749
851.0 0.001175 593.01788 849.84015
895.0 0.001117 592.90021 896.40985
869.0 0.001151 592.78247 943.29163
959.0 0.001043 592.66492 986.92859
1034.0 0.000967 592.54736 1022.91479
1071.0 0.000934 592.42993 1046.57043
1065.0 0.000939 592.31256 1054.16345
1048.0 0.000954 592.19519 1044.35315
1032.0 0.000969 592.07794 1018.80969
1038.0 0.000963 591.96075 981.48474
985.0 0.001015 591.84363 937.01068
893.0 0.001120 591.72656 889.74695
854.0 0.001171 591.60962 843.14075
829.0 0.001206 591.49268 799.67908
768.0 0.001302 591.37585 760.96490
754.0 0.001326 591.25916 727.83148
724.0 0.001381 591.14246 700.47766
665.0 0.001504 591.02588 678.62152
651.0 0.001536 590.90936 661.65979
635.0 0.001575 590.79291 648.82202
637.0 0.001570 590.67651 639.29742
638.0 0.001567 590.56030 632.32715
624.0 0.001603 590.44409 627.25793
641.0 0.001560 590.32800 623.56549
589.0 0.001698 590.21204 620.85101
609.0 0.001642 590.09607 618.82574
618.0 0.001618 589.98022 617.28979
638.0 0.001567 589.86450 616.10962
622.0 0.001608 589.74884 615.19708
622.0 0.001608 589.63324 614.49713
610.0 0.001639 589.51782 613.97455
625.0 0.001600 589.40247 613.60773
646.0 0.001548 589.28717 613.38361
618.0 0.001618 589.17200 613.29480
623.0 0.001605 589.05688 613.33807
627.0 0.001595 588.94189 613.51428
615.0 0.001626 588.82697 613.82660
629.0 0.001590 588.71222 614.28125
613.0 0.001631 588.59753 614.88812
596.0 0.001678 588.48297 615.66101
629.0 0.001590 588.36847 616.62024
610.0 0.001639 588.25409 617.80530
585.0 0.001709 588.13983 619.23730
606.0 0.001650 588.02570 620.99146
642.0 0.001558 587.91162 623.16760
615.0 0.001626 587.79767 625.91998
613.0 0.001631 587.68384 629.48596
617.0 0.001621 587.57013 634.22180
609.0 0.001642 587.45654 640.64832
603.0 0.001658 587.34308 649.49548
652.0 0.001534 587.22968 661.74146
646.0 0.001548 587.11639 678.62659
709.0 0.001410 587.00323 701.62476
693.0 0.001443 586.89026 732.35242
732.0 0.001366 586.77728 772.40173
736.0 0.001359 586.66455 823.09760
792.0 0.001263 586.55188 885.19318
869.0 0.001151 586.43933 958.54022
898.0 0.001114 586.32690 1041.77429
1046.0 0.000956 586.21460 1132.03967
1121.0 0.000892 586.10242 1224.76758
1245.0 0.000803 585.99036 1313.52795
1342.0 0.000745 585.87848 1390.12109
1390.0 0.000719 585.76666 1445.35535
1470.0 0.000680 585.65503 1471.02869
1482.0 0.000675 585.54352 1462.77368
1457.0 0.000686 585.43207 1421.99255
1396.0 0.000716 585.32080 1355.20593
1277.0 0.000783 585.20966 1271.40857
1218.0 0.000821 585.09869 1179.48987
1131.0 0.000884 584.98779 1086.85864
1057.0 0.000946 584.87708 999.06036
941.0 0.001063 584.76648 919.83344
848.0 0.001179 584.65601 851.30127
807.0 0.001239 584.54572 794.21918
762.0 0.001312 584.43555 748.26996
709.0 0.001410 584.32550 712.39069
694.0 0.001441 584.21558 685.09558
670.0 0.001493 584.10583 664.75446
654.0 0.001529 583.99622 649.80133
651.0 0.001536 583.88678 638.86340
643.0 0.001555 583.77747 630.82251
618.0 0.001618 583.66827 624.81982
619.0 0.001616 583.55927 620.22791
605.0 0.001653 583.45038 616.60791
616.0 0.001623 583.34167 613.66290
604.0 0.001656 583.23309 611.19678
612.0 0.001634 583.12469 609.11389
590.0 0.001695 583.01636 607.26746
588.0 0.001701 582.90826 605.63434
581.0 0.001721 582.80035 604.17584
572.0 0.001748 582.69250 602.86469
609.0 0.001642 582.58484 601.68030
600.0 0.001667 582.47736 600.60657
573.0 0.001745 582.37000 599.63116
590.0 0.001695 582.26282 598.74219
595.0 0.001681 582.15582 597.93170
579.0 0.001727 582.04895 597.19244
591.0 0.001692 581.94226 596.51831
571.0 0.001751 581.83575 595.90521
564.0 0.001773 581.72931 595.34979
599.0 0.001669 581.62317 594.85120
587.0 0.001704 581.51709 594.41046
611.0 0.001637 581.41119 594.03180
592.0 0.001689 581.30548 593.72363
609.0 0.001642 581.19995 593.50012
575.0 0.001739 581.09460 593.38141
595.0 0.001681 580.98932 593.39740
590.0 0.001695 580.88434 593.58612
564.0 0.001773 580.77942 593.99463
578.0 0.001730 580.67474 594.67621
571.0 0.001751 580.57019 595.68787
587.0 0.001704 580.46588 597.08105
598.0 0.001672 580.36169 598.89508
597.0 0.001675 580.25769 601.14471
592.0 0.001689 580.15387 603.81152
609.0 0.001642 580.05023 606.83093
607.0 0.001647 579.94678 610.08606
623.0 0.001605 579.84344 613.39606
603.0 0.001658 579.74036 616.51221
643.0 0.001555 579.63739 619.12238
628.0 0.001592 579.53467 620.88452
614.0 0.001629 579.43207 621.50513
617.0 0.001621 579.32971 620.84534
613.0 0.001631 579.22748 618.97992
614.0 0.001629 579.12549 616.16357
617.0 0.001621 579.02362 612.73285
614.0 0.001629 578.92194 609.01483
608.0 0.001645 578.82050 605.27722
601.0 0.001664 578.71918 601.72162
606.0 0.001650 578.61810 598.48279
607.0 0.001647 578.51727 595.63940
577.0 0.001733 578.41650 593.22217
598.0 0.001672 578.31598 591.22400
568.0 0.001761 578.21564 589.61151
574.0 0.001742 578.11554 588.33368
568.0 0.001761 578.01556 587.33405
580.0 0.001724 577.91583 586.55566
575.0 0.001739 577.81622 585.94690
556.0 0.001799 577.71686 585.46533
586.0 0.001706 577.61774 585.07690
594.0 0.001684 577.51874 584.75513
585.0 0.001709 577.41992 584.48218
574.0 0.001742 577.32135 584.26672
575.0 0.001739 577.22296 584.05676
586.0 0.001706 577.12476 583.86823
578.0 0.001730 577.02679 583.69745
585.0 0.001709 576.92896 583.54120
596.0 0.001678 576.83142 583.39911
558.0 0.001792 576.73407 583.26904
543.0 0.001842 576.63684 583.15088
590.0 0.001695 576.53986 583.04431
572.0 0.001748 576.44305 582.94910
579.0 0.001727 576.34650 582.86542
574.0 0.001742 576.25012 582.79376
561.0 0.001783 576.15399 582.74548
575.0 0.001739 576.05804 582.70026
575.0 0.001739 575.96228 582.67108
586.0 0.001706 575.86676 582.66034
584.0 0.001712 575.77136 582.67230
597.0 0.001675 575.67627 582.71423
599.0 0.001669 575.58136 582.86835
591.0 0.001692 575.48663 583.00537
586.0 0.001706 575.39215 583.21899
564.0 0.001773 575.29785 583.53748
577.0 0.001733 575.20380 584.00006
572.0 0.001748 575.10992 584.65411
581.0 0.001721 575.01630 585.55585
571.0 0.001751 574.92285 586.76593
575.0 0.001739 574.82965 588.34369
585.0 0.001709 574.73657 590.33966
563.0 0.001776 574.64386 592.78314
594.0 0.001684 574.55121 595.67255
615.0 0.001626 574.45892 598.96423
596.0 0.001678 574.36676 602.56036
609.0 0.001642 574.27484 606.30292
599.0 0.001669 574.18317 609.96320
616.0 0.001623 574.09167 613.24133
615.0 0.001626 574.00037 615.78674
592.0 0.001689 573.90930 617.25616
633.0 0.001580 573.81854 617.41583
627.0 0.001595 573.72791 616.23651
624.0 0.001603 573.63751 613.90625
609.0 0.001642 573.54736 610.75171
632.0 0.001582 573.45746 607.12976
616.0 0.001623 573.36774 603.35681
589.0 0.001698 573.27826 599.68066
605.0 0.001653 573.18896 596.27728
602.0 0.001661 573.09991 593.26007
623.0 0.001605 573.01111 590.68591
576.0 0.001736 572.92255 588.56696
601.0 0.001664 572.83417 586.88129
587.0 0.001704 572.74603 585.58356
594.0 0.001684 572.65814 584.61627
594.0 0.001684 572.57050 583.91943
572.0 0.001748 572.48297 583.43597
593.0 0.001686 572.39581 583.11719
574.0 0.001742 572.30878 582.92285
585.0 0.001709 572.22205 582.82269
598.0 0.001672 572.13550 582.79529
580.0 0.001724 572.04919 582.82495
591.0 0.001692 571.96313 582.90222
576.0 0.001736 571.87732 583.02191
593.0 0.001686 571.79169 583.18066
588.0 0.001701 571.70630 583.37769
600.0 0.001667 571.62122 583.63580
596.0 0.001678 571.53632 583.91296
635.0 0.001575 571.45160 584.23328
572.0 0.001748 571.36719 584.60132
583.0 0.001715 571.28296 585.02087
569.0 0.001757 571.19904 585.49915
579.0 0.001727 571.11523 586.04315
589.0 0.001698 571.03180 586.66339
567.0 0.001764 570.94849 587.37439
576.0 0.001736 570.86548 588.19611
601.0 0.001664 570.78271 589.15863
616.0 0.001623 570.70013 590.30603
627.0 0.001595 570.61786 591.70605
623.0 0.001605 570.53577 593.45966
596.0 0.001678 570.45398 595.71350
593.0 0.001686 570.37238 598.67719
615.0 0.001626 570.29102 602.63855
631.0 0.001585 570.20990 607.97528
618.0 0.001618 570.12903 615.15802
627.0 0.001595 570.04840 624.60455
657.0 0.001522 569.96802 637.18744
628.0 0.001592 569.88788 653.36414
649.0 0.001541 569.80792 673.63550
674.0 0.001484 569.72827 698.30792
693.0 0.001443 569.64886 727.38092
724.0 0.001381 569.56964 760.43445
759.0 0.001318 569.49072 796.53247
828.0 0.001208 569.41205 834.13257
879.0 0.001138 569.33362 871.01685
891.0 0.001122 569.25537 904.27472
938.0 0.001066 569.17743 930.47461
950.0 0.001053 569.09967 946.21851
966.0 0.001035 569.02222 949.11560
968.0 0.001033 568.94495 938.72308
929.0 0.001076 568.86798 916.74432
908.0 0.001101 568.79126 886.30927
889.0 0.001125 568.71478 850.93140
838.0 0.001193 568.63855 813.76868
820.0 0.001220 568.56250 777.37433
746.0 0.001340 568.48682 743.37177
721.0 0.001387 568.41125 713.13794
722.0 0.001385 568.33600 687.21240
659.0 0.001517 568.26099 665.75244
659.0 0.001517 568.18622 648.56409
646.0 0.001548 568.11176 635.21350
650.0 0.001538 568.03748 625.13654
634.0 0.001577 567.96344 617.73016
624.0 0.001603 567.88965 612.42181
630.0 0.001587 567.81616 608.70996
618.0 0.001618 567.74286 606.18488
653.0 0.001531 567.66986 604.53015
641.0 0.001560 567.59711 603.51343
603.0 0.001658 567.52460 602.97180
613.0 0.001631 567.45233 602.79626
616.0 0.001623 567.38025 602.91760
645.0 0.001550 567.30853 603.29327
650.0 0.001538 567.23700 603.90070
647.0 0.001546 567.16571 604.73016
604.0 0.001656 567.09467 605.78174
616.0 0.001623 567.02393 607.06219
638.0 0.001567 566.95343 608.58533
659.0 0.001517 566.88312 610.37073
639.0 0.001565 566.81311 612.44635
619.0 0.001616 566.74335 614.84937
629.0 0.001590 566.67383 617.63293
641.0 0.001560 566.60461 620.87189
629.0 0.001590 566.53558 624.71802
645.0 0.001550 566.46680 629.25043
665.0 0.001504 566.39832 634.75677
656.0 0.001524 566.33008 641.60480
657.0 0.001522 566.26208 650.33411
666.0 0.001502 566.19434 661.72083
650.0 0.001538 566.12683 676.84204
671.0 0.001490 566.05963 697.13660
710.0 0.001408 565.99261 724.43726
728.0 0.001374 565.92590 760.95734
734.0 0.001362 565.85944 809.19891
788.0 0.001269 565.79315 871.76538
899.0 0.001112 565.72723 951.07098
930.0 0.001075 565.66150 1048.94836
1031.0 0.000970 565.59601 1166.19690
1156.0 0.000865 565.53076 1302.11011
1302.0 0.000768 565.46582 1454.02747
1398.0 0.000715 565.40112 1616.92798
1664.0 0.000601 565.33667 1783.07422
1844.0 0.000542 565.27246 1941.74060
2034.0 0.000492 565.20856 2079.33521
2123.0 0.000471 565.14484 2180.60645
2202.0 0.000454 565.08142 2231.70947
2223.0 0.000450 565.01825 2224.65161
2195.0 0.000456 564.95526 2160.57983
2084.0 0.000480 564.89264 2049.27515
1998.0 0.000501 564.83020 1905.29614
1791.0 0.000558 564.76801 1743.70154
1607.0 0.000622 564.70612 1577.45667
1409.0 0.000710 564.64447 1416.56323
1271.0 0.000787 564.58307 1268.08411
1116.0 0.000896 564.52191 1136.44434
1037.0 0.000964 564.46100 1023.80176
914.0 0.001094 564.40033 930.46436
846.0 0.001182 564.33997 855.34357
817.0 0.001224 564.27985 796.42963
747.0 0.001339 564.21997 751.23279
731.0 0.001368 564.16034 717.15125
713.0 0.001403 564.10095 691.73981
673.0 0.001486 564.04181 672.87817
660.0 0.001515 563.98297 658.81561
675.0 0.001481 563.92438 648.21936
686.0 0.001458 563.86597 640.07605
637.0 0.001570 563.80786 633.68103
640.0 0.001563 563.75006 628.54248
639.0 0.001565 563.69244 624.32782
649.0 0.001541 563.63507 620.81610
655.0 0.001527 563.57800 617.86182
666.0 0.001502 563.52112 615.36774
660.0 0.001515 563.46454 613.26868
643.0 0.001555 563.40820 611.53168
648.0 0.001543 563.35211 610.10364
656.0 0.001524 563.29633 608.97650
679.0 0.001473 563.24072 608.14008
653.0 0.001531 563.18542 607.59265
641.0 0.001560 563.13031 607.34399
635.0 0.001575 563.07550 607.41785
652.0 0.001534 563.02094 607.85950
640.0 0.001563 562.96661 608.74432
639.0 0.001565 562.91254 610.19196
631.0 0.001585 562.85876 612.38654
629.0 0.001590 562.80518 615.59888
640.0 0.001563 562.75189 620.21393
658.0 0.001520 562.69879 626.75452
672.0 0.001488 562.64600 635.90009
678.0 0.001475 562.59344 648.48694
672.0 0.001488 562.54114 665.47992
730.0 0.001370 562.48907 687.91248
709.0 0.001410 562.43726 716.77985
753.0 0.001328 562.38574 752.89392
774.0 0.001292 562.33441 796.70770
845.0 0.001183 562.28339 848.12634
879.0 0.001138 562.23254 906.32507
930.0 0.001075 562.18201 969.58612
1031.0 0.000970 562.13165 1035.15662
1089.0 0.000918 562.08160 1099.13428
1160.0 0.000862 562.03180 1156.45813
1200.0 0.000833 561.98224 1201.22290
1232.0 0.000812 561.93292 1227.64539
1271.0 0.000787 561.88385 1231.70435
1221.0 0.000819 561.83502 1212.68909
1228.0 0.000814 561.78644 1173.51099
1168.0 0.000856 561.73816 1119.50146
1108.0 0.000903 561.69006 1056.67334
1056.0 0.000947 561.64221 990.46808
964.0 0.001037 561.59467 925.23138
897.0 0.001115 561.54730 864.13556
834.0 0.001199 561.50018 809.26917
780.0 0.001282 561.45337 761.77258
721.0 0.001387 561.40674 721.99152
713.0 0.001403 561.36041 689.65320
670.0 0.001493 561.31427 664.06122
674.0 0.001484 561.26843 644.25647
626.0 0.001597 561.22278 629.20624
629.0 0.001590 561.17743 617.90546
620.0 0.001613 561.13226 609.45917
621.0 0.001610 561.08740 603.12268
615.0 0.001626 561.04272 598.30927
592.0 0.001689 560.99835 594.57770
610.0 0.001639 560.95416 591.60974
583.0 0.001715 560.91022 589.18268
627.0 0.001595 560.86658 587.14490
632.0 0.001582 560.82312 585.39520
613.0 0.001631 560.77991 583.86493
571.0 0.001751 560.73694 582.50812
584.0 0.001712 560.69421 581.29346
596.0 0.001678 560.65173 580.19800
589.0 0.001698 560.60950 579.20459
596.0 0.001678 560.56750 578.29974
601.0 0.001664 560.52576 577.47302
604.0 0.001656 560.48425 576.71527
585.0 0.001709 560.44293 576.01898
577.0 0.001733 560.40192 575.37793
564.0 0.001773 560.36108 574.78595
592.0 0.001689 560.32056 574.23926
573.0 0.001745 560.28021 573.73285
562.0 0.001779 560.24011 573.26343
571.0 0.001751 560.20020 572.82727
593.0 0.001686 560.16058 572.42212
561.0 0.001783 560.12122 572.04547
591.0 0.001692 560.08203 571.69440
567.0 0.001764 560.04315 571.36774
591.0 0.001692 560.00439 571.06342
578.0 0.001730 559.96600 570.78021
595.0 0.001681 559.92773 570.51624
596.0 0.001678 559.88977 570.27051
577.0 0.001733 559.85199 570.04242
599.0 0.001669 559.81445 569.83057
591.0 0.001692 559.77716 569.63434
601.0 0.001664 559.74011 569.45294
561.0 0.001783 559.70325 569.28552
605.0 0.001653 559.66663 569.13208
584.0 0.001712 559.63025 568.99170
552.0 0.001812 559.59412 568.86450
586.0 0.001706 559.55823 568.74976
609.0 0.001642 559.52252 568.64740
566.0 0.001767 559.48706 568.55737
573.0 0.001745 559.45178 568.47925
576.0 0.001736 559.41681 568.41376
564.0 0.001773 559.38202 568.35992
570.0 0.001754 559.34741 568.31873
603.0 0.001658 559.31311 568.28967
577.0 0.001733 559.27899 568.27380
571.0 0.001751 559.24512 568.27087
577.0 0.001733 559.21143 568.28143
607.0 0.001647 559.17798 568.30621
576.0 0.001736 559.14478 568.34558
588.0 0.001701 559.11176 568.40033
569.0 0.001757 559.07898 568.47119
567.0 0.001764 559.04645 568.55975
573.0 0.001745 559.01410 568.66626
596.0 0.001678 558.98199 568.80792
577.0 0.001733 558.95007 568.95532
567.0 0.001764 558.91840 569.12567
552.0 0.001812 558.88696 569.32086
581.0 0.001721 558.85571 569.54291
610.0 0.001639 558.82465 569.79480
561.0 0.001783 558.79388 570.07886
576.0 0.001736 558.76324 570.39905
562.0 0.001779 558.73285 570.75909
572.0 0.001748 558.70270 571.16382
575.0 0.001739 558.67273 571.61823
593.0 0.001686 558.64301 572.12964
589.0 0.001698 558.61346 572.70520
580.0 0.001724 558.58417 573.35535
570.0 0.001754 558.55505 574.09351
580.0 0.001724 558.52618 574.93768
566.0 0.001767 558.49750 575.91382
557.0 0.001795 558.46899 577.05859
583.0 0.001715 558.44080 578.42737
593.0 0.001686 558.41272 580.10077
590.0 0.001695 558.38489 582.19751
597.0 0.001675 558.35724 584.88623
585.0 0.001709 558.32977 588.40289
571.0 0.001751 558.30255 593.06470
573.0 0.001745 558.27557 599.28021
586.0 0.001706 558.24872 607.55316
591.0 0.001692 558.22211 618.46832
634.0 0.001577 558.19574 632.65967
643.0 0.001555 558.16949 650.75464
644.0 0.001553 558.14349 673.29529
663.0 0.001508 558.11768 700.63892
676.0 0.001479 558.09210 732.85065
733.0 0.001364 558.06671 769.59192
774.0 0.001292 558.04150 810.02283
819.0 0.001221 558.01648 852.70636
843.0 0.001186 557.99170 895.52869
908.0 0.001101 557.96710 935.64716
948.0 0.001055 557.94269 969.56274
942.0 0.001062 557.91846 993.49860
965.0 0.001036 557.89447 1004.22192
1009.0 0.000991 557.87061 1000.10455
991.0 0.001009 557.84698 981.78113
959.0 0.001043 557.82355 951.88306
882.0 0.001134 557.80029 914.06757
860.0 0.001163 557.77728 872.03180
821.0 0.001218 557.75439 828.93866
781.0 0.001280 557.73175 787.22980
722.0 0.001385 557.70923 748.63959
690.0 0.001449 557.68695 714.26752
672.0 0.001488 557.66486 684.66711
656.0 0.001524 557.64294 659.94928
607.0 0.001647 557.62122 639.75812
628.0 0.001592 557.59967 623.83929
607.0 0.001647 557.57831 611.48767
597.0 0.001675 557.55713 602.06360
612.0 0.001634 557.53613 594.95508
600.0 0.001667 557.51532 589.61938
607.0 0.001647 557.49469 585.60468
604.0 0.001656 557.47424 582.55353
594.0 0.001684 557.45398 580.19550
563.0 0.001776 557.43390 578.33337
547.0 0.001828 557.41400 576.82867
592.0 0.001689 557.39429 575.58490
567.0 0.001764 557.37476 574.62769
599.0 0.001669 557.35541 573.73431
576.0 0.001736 557.33618 573.02264
554.0 0.001805 557.31720 572.35675
595.0 0.001681 557.29834 571.77979
581.0 0.001721 557.27966 571.28247
588.0 0.001701 557.26117 570.85779
593.0 0.001686 557.24286 570.50098
572.0 0.001748 557.22467 570.21051
570.0 0.001754 557.20673 569.98639
600.0 0.001667 557.18890 569.83289
574.0 0.001742 557.17126 569.75848
580.0 0.001724 557.15375 569.77795
569.0 0.001757 557.13647 569.91510
568.0 0.001761 557.11932 570.20404
569.0 0.001757 557.10236 570.69427
550.0 0.001818 557.08557 571.45050
561.0 0.001783 557.06891 572.55530
552.0 0.001812 557.05243 574.10718
565.0 0.001770 557.03607 576.21674
554.0 0.001805 557.01996 578.99646
600.0 0.001667 557.00397 582.54895
571.0 0.001751 556.98810 586.94934
595.0 0.001681 556.97241 592.22546
580.0 0.001724 556.95691 598.33887
578.0 0.001730 556.94153 605.16406
596.0 0.001678 556.92633 612.47565
609.0 0.001642 556.91132 619.93103
627.0 0.001595 556.89636 627.06293
625.0 0.001600 556.88165 633.28522
604.0 0.001656 556.86707 637.94208
639.0 0.001565 556.85260 640.43018
632.0 0.001582 556.83832 640.37976
613.0 0.001631 556.82422 637.79761
613.0 0.001631 556.81018 633.06458
633.0 0.001580 556.79639 626.78912
576.0 0.001736 556.78265 619.62573
603.0 0.001658 556.76917 612.15729
597.0 0.001675 556.75574 604.84680
561.0 0.001783 556.74249 598.03180
615.0 0.001626 556.72937 591.94250
587.0 0.001704 556.71643 586.68640
564.0 0.001773 556.70361 582.30658
601.0 0.001664 556.69092 578.77301
569.0 0.001757 556.67834 576.00952
568.0 0.001761 556.66595 573.91302
572.0 0.001748 556.65375 572.37054
576.0 0.001736 556.64160 571.27258
561.0 0.001783 556.62964 570.52057
593.0 0.001686 556.61774 570.03290
574.0 0.001742 556.60602 569.74524
549.0 0.001821 556.59448 569.60950
587.0 0.001704 556.58301 569.59131
574.0 0.001742 556.57172 569.66791
574.0 0.001742 556.56049 569.82440
583.0 0.001715 556.54944 570.05267
568.0 0.001761 556.53851 570.34998
603.0 0.001658 556.52771 570.71484
567.0 0.001764 556.51709 571.15094
579.0 0.001727 556.50653 571.66290
548.0 0.001825 556.49609 572.25885
566.0 0.001767 556.48584 572.95056
598.0 0.001672 556.47565 573.75458
597.0 0.001675 556.46564 574.69489
600.0 0.001667 556.45569 575.80737
564.0 0.001773 556.44592 577.14551
595.0 0.001681 556.43622 578.78772
579.0 0.001727 556.42664 580.84808
585.0 0.001709 556.41724 583.48969
573.0 0.001745 556.40790 586.93860
609.0 0.001642 556.39868 591.49695
617.0 0.001621 556.38959 597.55371
607.0 0.001647 556.38062 605.58527
566.0 0.001767 556.37170 616.14398
597.0 0.001675 556.36298 629.82825
618.0 0.001618 556.35431 647.23102
614.0 0.001629 556.34576 668.86755
649.0 0.001541 556.33734 695.08411
657.0 0.001522 556.32904 725.95850
722.0 0.001385 556.32086 761.25775
724.0 0.001381 556.31274 800.11304
799.0 0.001252 556.30475 841.28204
844.0 0.001185 556.29681 882.84161
869.0 0.001151 556.28906 922.19702
938.0 0.001066 556.28137 956.12592
949.0 0.001054 556.27380 981.07745
985.0 0.001015 556.26630 993.86664
990.0 0.001010 556.25891 992.64276
963.0 0.001038 556.25159 977.60193
905.0 0.001105 556.24445 950.90869
877.0 0.001140 556.23730 915.88446
855.0 0.001170 556.23035 876.05841
786.0 0.001272 556.22345 834.55255
743.0 0.001346 556.21661 793.83984
750.0 0.001333 556.20990 755.72534
724.0 0.001381 556.20325 721.40454
659.0 0.001517 556.19672 691.54120
638.0 0.001567 556.19025 666.35321
644.0 0.001553 556.18390 645.70703
606.0 0.001650 556.17761 629.21918
593.0 0.001686 556.17145 616.35535
589.0 0.001698 556.16534 606.51819
591.0 0.001692 556.15930 599.11584
564.0 0.001773 556.15338 593.60931
567.0 0.001764 556.14752 589.53961
583.0 0.001715 556.14172 586.53595
589.0 0.001698 556.13605 584.31311
572.0 0.001748 556.13043 582.65955
565.0 0.001770 556.12488 581.42542
576.0 0.001736 556.11945 580.50610
565.0 0.001770 556.11407 579.83313
588.0 0.001701 556.10876 579.36047
573.0 0.001745 556.10352 579.06049
600.0 0.001667 556.09833 578.91589
572.0 0.001748 556.09326 578.91901
577.0 0.001733 556.08820 579.06891
597.0 0.001675 556.08325 579.37128
585.0 0.001709 556.07837 579.83990
599.0 0.001669 556.07355 580.49915
588.0 0.001701 556.06879 581.38776
577.0 0.001733 556.06409 582.56720
599.0 0.001669 556.05951 584.12866
598.0 0.001672 556.05493 586.20612
603.0 0.001658 556.05042 588.98889
562.0 0.001779 556.04596 592.73627
597.0 0.001675 556.04163 597.78918
584.0 0.001712 556.03729 604.57709
595.0 0.001681 556.03302 613.61371
607.0 0.001647 556.02881 625.64435
617.0 0.001621 556.02466 640.93866
635.0 0.001575 556.02057 660.22949
672.0 0.001488 556.01654 683.96796
642.0 0.001558 556.01251 712.43121
696.0 0.001437 556.00861 745.46857
730.0 0.001370 556.00470 782.63489
788.0 0.001269 556.00085 822.95013
832.0 0.001202 555.99707 864.85773
863.0 0.001159 555.99329 906.15765
900.0 0.001111 555.98962 943.98560
913.0 0.001095 555.98596 974.93939
967.0 0.001034 555.98236 995.52313
984.0 0.001016 555.97876 1002.97491
1004.0 0.000996 555.97522 996.19989
951.0 0.001052 555.97174 976.20685
930.0 0.001075 555.96826 945.70447
886.0 0.001129 555.96484 908.17786
846.0 0.001182 555.96149 867.04474
834.0 0.001199 555.95813 825.19714
741.0 0.001350 555.95483 784.86407
738.0 0.001355 555.95160 747.62823
714.0 0.001401 555.94836 714.49371
671.0 0.001490 555.94513 685.96375
680.0 0.001471 555.94196 662.12787
664.0 0.001506 555.93878 642.75903
628.0 0.001592 555.93567 627.41492
625.0 0.001600 555.93256 615.53162
620.0 0.001613 555.92950 606.50690
623.0 0.001605 555.92645 599.76196
610.0 0.001639 555.92346 594.78107
585.0 0.001709 555.92041 591.13177
605.0 0.001653 555.91748 588.47058
602.0 0.001661 555.91449 586.53650
588.0 0.001701 555.91156 585.13806
566.0 0.001767 555.90863 584.14270
580.0 0.001724 555.90576 583.45831
588.0 0.001701 555.90283 583.02563
583.0 0.001715 555.89996 582.80725
584.0 0.001712 555.89716 582.78229
581.0 0.001721 555.89429 582.94006
568.0 0.001761 555.89142 583.28143
613.0 0.001631 555.88861 583.81445
589.0 0.001698 555.88580 584.55853
602.0 0.001661 555.88300 585.54602
570.0 0.001754 555.88019 586.82898
586.0 0.001706 555.87738 588.48877
588.0 0.001701 555.87463 590.64667
591.0 0.001692 555.87183 593.48132
606.0 0.001650 555.86902 597.24884
595.0 0.001681 555.86627 602.30316
593.0 0.001686 555.86346 609.11615
608.0 0.001645 555.86066 618.29205
653.0 0.001531 555.85791 630.59033
646.0 0.001548 555.85510 646.80682
644.0 0.001553 555.85229 667.87115
668.0 0.001497 555.84949 694.66693
681.0 0.001468 555.84668 727.94196
684.0 0.001462 555.84387 768.16852
725.0 0.001379 555.84106 815.39172
800.0 0.001250 555.83826 869.07928
845.0 0.001183 555.83539 927.98669
915.0 0.001093 555.83252 990.03815
987.0 0.001013 555.82965 1052.22839
1057.0 0.000946 555.82678 1110.57043
1109.0 0.000902 555.82391 1160.20264
1159.0 0.000863 555.82098 1195.88306
1177.0 0.000850 555.81805 1213.05090
1172.0 0.000853 555.81506 1209.22583
1141.0 0.000876 555.81213 1184.97852
1102.0 0.000907 555.80914 1143.63196
1061.0 0.000943 555.80609 1090.15808
1007.0 0.000993 555.80304 1029.75562
972.0 0.001029 555.79999 967.00848
884.0 0.001131 555.79694 905.56024
858.0 0.001166 555.79382 848.07935
780.0 0.001282 555.79065 796.33698
749.0 0.001335 555.78748 751.31311
705.0 0.001418 555.78430 713.32001
670.0 0.001493 555.78107 682.14453
658.0 0.001520 555.77777 657.19891
635.0 0.001575 555.77448 637.67200
665.0 0.001504 555.77112 622.65979
626.0 0.001597 555.76776 611.26868
590.0 0.001695 555.76434 602.68671
601.0 0.001664 555.76093 596.22125
608.0 0.001645 555.75745 591.34033
587.0 0.001704 555.75391 587.55859
574.0 0.001742 555.75031 584.58264
589.0 0.001698 555.74670 582.18286
575.0 0.001739 555.74304 580.19855
607.0 0.001647 555.73938 578.51935
613.0 0.001631 555.73560 577.07068
579.0 0.001727 555.73181 575.80151
595.0 0.001681 555.72797 574.67670
592.0 0.001689 555.72412 573.67200
570.0 0.001754 555.72015 572.76843
569.0 0.001757 555.71619 571.95221
586.0 0.001706 555.71216 571.21246
596.0 0.001678 555.70807 570.54053
572.0 0.001748 555.70392 569.92908
604.0 0.001656 555.69971 569.37097
593.0 0.001686 555.69543 568.86096
599.0 0.001669 555.69110 568.39478
585.0 0.001709 555.68671 567.96851
597.0 0.001675 555.68225 567.57745
557.0 0.001795 555.67773 567.21918
531.0 0.001883 555.67322 566.89130
564.0 0.001773 555.66858 566.59058
570.0 0.001754 555.66388 566.31555
562.0 0.001779 555.65912 566.06403
565.0 0.001770 555.65430 565.83392
570.0 0.001754 555.64935 565.62445
605.0 0.001653 555.64441 565.43420
548.0 0.001825 555.63940 565.26160
586.0 0.001706 555.63428 565.10626
575.0 0.001739 555.62909 564.96680
546.0 0.001832 555.62384 564.84283
575.0 0.001739 555.61847 564.73376
567.0 0.001764 555.61310 564.63849
582.0 0.001718 555.60760 564.55914
579.0 0.001727 555.60205 564.49115
562.0 0.001779 555.59644 564.43628
577.0 0.001733 555.59070 564.39471
578.0 0.001730 555.58490 564.36511
556.0 0.001799 555.57898 564.34906
562.0 0.001779 555.57300 564.34564
565.0 0.001770 555.56696 564.35535
538.0 0.001859 555.56085 564.37817
570.0 0.001754 555.55463 564.41425
563.0 0.001776 555.54828 564.46429
564.0 0.001773 555.54187 564.52850
571.0 0.001751 555.53540 564.60822
559.0 0.001789 555.52881 564.70337
583.0 0.001715 555.52216 564.81488
558.0 0.001792 555.51538 564.94373
590.0 0.001695 555.50848 565.09149
578.0 0.001730 555.50153 565.25928
551.0 0.001815 555.49445 565.44812
579.0 0.001727 555.48730 565.66040
574.0 0.001742 555.48004 565.89758
567.0 0.001764 555.47272 566.16229
569.0 0.001757 555.46521 566.45721
562.0 0.001779 555.45770 566.78552
558.0 0.001792 555.45001 567.15027
548.0 0.001825 555.44226 567.55627
581.0 0.001721 555.43439 568.00854
562.0 0.001779 555.42639 568.51312
564.0 0.001773 555.41833 569.07880
567.0 0.001764 555.41010 569.71490
569.0 0.001757 555.40179 570.43665
595.0 0.001681 555.39337 571.26367
569.0 0.001757 555.38489 572.22498
586.0 0.001706 555.37622 573.36316
571.0 0.001751 555.36749 574.73914
582.0 0.001718 555.35858 576.44214
610.0 0.001639 555.34961 578.59735
587.0 0.001704 555.34052 581.37842
584.0 0.001712 555.33130 585.01691
590.0 0.001695 555.32196 589.81195
604.0 0.001656 555.31250 596.13080
618.0 0.001618 555.30292 604.56207
638.0 0.001567 555.29321 615.26709
603.0 0.001658 555.28339 628.88544
634.0 0.001577 555.27344 645.86029
640.0 0.001563 555.26337 666.52618
660.0 0.001515 555.25311 691.03491
665.0 0.001504 555.24280 719.27954
721.0 0.001387 555.23236 750.81732
743.0 0.001346 555.22174 784.80676
784.0 0.001276 555.21106 819.94702
811.0 0.001233 555.20020 854.42902
857.0 0.001167 555.18921 885.92523
856.0 0.001168 555.17804 911.69775
839.0 0.001192 555.16681 928.95105
897.0 0.001115 555.15540 935.47211
904.0 0.001106 555.14386 930.35205
897.0 0.001115 555.13220 914.33136
840.0 0.001190 555.12042 889.51581
851.0 0.001175 555.10846 858.67542
794.0 0.001259 555.09637 824.57721
765.0 0.001307 555.08417 789.60138
723.0 0.001383 555.07178 755.61328
685.0 0.001460 555.05927 723.96844
688.0 0.001453 555.04657 695.55493
672.0 0.001488 555.03381 670.85535
624.0 0.001603 555.02081 650.01147
635.0 0.001575 555.00775 632.89557
625.0 0.001600 554.99451 619.19110
615.0 0.001626 554.98108 608.46552
570.0 0.001754 554.96753 600.23785
610.0 0.001639 554.95380 594.03302
593.0 0.001686 554.93994 589.41608
595.0 0.001681 554.92596 586.01483
595.0 0.001681 554.91174 583.52588
597.0 0.001675 554.89746 581.71442
608.0 0.001645 554.88293 580.40442
610.0 0.001639 554.86835 579.47113
603.0 0.001658 554.85352 578.82666
595.0 0.001681 554.83856 578.41321
600.0 0.001667 554.82343 578.19482
604.0 0.001656 554.80817 578.15033
592.0 0.001689 554.79272 578.27081
573.0 0.001745 554.77710 578.55835
598.0 0.001672 554.76135 579.02399
594.0 0.001684 554.74536 579.69220
576.0 0.001736 554.72931 580.60345
583.0 0.001715 554.71301 581.82019
592.0 0.001689 554.69659 583.43433
596.0 0.001678 554.67993 585.58057
615.0 0.001626 554.66315 588.44550
613.0 0.001631 554.64618 592.28003
580.0 0.001724 554.62909 597.48047
599.0 0.001669 554.61176 604.31488
617.0 0.001621 554.59430 613.33368
616.0 0.001623 554.57666 625.07532
628.0 0.001592 554.55884 640.10211
662.0 0.001511 554.54083 658.94678
652.0 0.001534 554.52264 682.04144
673.0 0.001486 554.50427 709.63892
669.0 0.001495 554.48572 741.72223
748.0 0.001337 554.46698 777.91949
745.0 0.001342 554.44806 817.42737
807.0 0.001239 554.42896 858.95099
882.0 0.001134 554.40973 900.58289
911.0 0.001098 554.39026 939.85211
982.0 0.001018 554.37061 973.71710
977.0 0.001024 554.35077 998.85559
1049.0 0.000953 554.33075 1012.27521
1011.0 0.000989 554.31055 1012.15851
975.0 0.001026 554.29016 998.51349
977.0 0.001024 554.26959 973.17059
940.0 0.001064 554.24878 939.12872
868.0 0.001152 554.22784 899.70984
871.0 0.001148 554.20667 857.94971
804.0 0.001244 554.18530 816.32928
753.0 0.001328 554.16376 776.72046
716.0 0.001397 554.14203 740.42725
690.0 0.001449 554.12012 708.24945
674.0 0.001484 554.09796 680.55420
685.0 0.001460 554.07562 657.35522
630.0 0.001587 554.05304 638.39746
621.0 0.001610 554.03033 623.24628
627.0 0.001595 554.00739 611.36774
627.0 0.001595 553.98425 602.19849
612.0 0.001634 553.96094 595.19958
613.0 0.001631 553.93738 589.88763
581.0 0.001721 553.91364 585.85706
594.0 0.001684 553.88971 582.77997
615.0 0.001626 553.86554 580.40350
623.0 0.001605 553.84113 578.53949
615.0 0.001626 553.81659 577.05231
609.0 0.001642 553.79181 575.84662
601.0 0.001664 553.76678 574.85638
613.0 0.001631 553.74164 574.03821
582.0 0.001718 553.71619 573.36200
575.0 0.001739 553.69061 572.81049
595.0 0.001681 553.66473 572.37207
565.0 0.001770 553.63867 572.04346
567.0 0.001764 553.61243 571.82678
583.0 0.001715 553.58594 571.73254
577.0 0.001733 553.55927 571.77881
591.0 0.001692 553.53235 571.99719
611.0 0.001637 553.50525 572.43213
595.0 0.001681 553.47791 573.14734
584.0 0.001712 553.45032 574.22815
599.0 0.001669 553.42255 575.78235
599.0 0.001669 553.39453 577.94061
587.0 0.001704 553.36633 580.85187
616.0 0.001623 553.33789 584.67493
625.0 0.001600 553.30920 589.56421
622.0 0.001608 553.28027 595.64960
612.0 0.001634 553.25116 603.01514
602.0 0.001661 553.22186 611.67358
630.0 0.001587 553.19226 621.53503
637.0 0.001570 553.16248 632.39587
679.0 0.001473 553.13245 643.90973
673.0 0.001486 553.10223 655.57440
689.0 0.001451 553.07172 666.71893
703.0 0.001422 553.04102 676.51544
704.0 0.001420 553.01007 684.04199
716.0 0.001397 552.97888 688.43463
724.0 0.001381 552.94751 689.11566
699.0 0.001431 552.91583 685.99457
690.0 0.001449 552.88397 679.50085
666.0 0.001502 552.85187 670.42987
692.0 0.001445 552.81952 659.70673
698.0 0.001433 552.78699 648.20197
622.0 0.001608 552.75415 636.64307
638.0 0.001567 552.72113 625.59052
639.0 0.001565 552.68781 615.43921
620.0 0.001613 552.65430 606.44226
601.0 0.001664 552.62054 598.72430
601.0 0.001664 552.58655 592.30530
620.0 0.001613 552.55231 587.12354
623.0 0.001605 552.51782 583.06287
615.0 0.001626 552.48309 579.97534
592.0 0.001689 552.44812 577.70343
585.0 0.001709 552.41290 576.09448
604.0 0.001656 552.37744 575.01196
612.0 0.001634 552.34174 574.34216
603.0 0.001658 552.30585 573.99353
622.0 0.001608 552.26965 573.89777
593.0 0.001686 552.23315 574.00568
602.0 0.001661 552.19653 574.28510
579.0 0.001727 552.15961 574.71649
613.0 0.001631 552.12238 575.29120
621.0 0.001610 552.08496 576.01013
576.0 0.001736 552.04730 576.88190
576.0 0.001736 552.00934 577.92517
609.0 0.001642 551.97119 579.16895
631.0 0.001585 551.93274 580.65942
561.0 0.001783 551.89404 582.46429
624.0 0.001603 551.85516 584.68219
622.0 0.001608 551.81592 587.45422
627.0 0.001595 551.77649 590.97852
622.0 0.001608 551.73682 595.52417
633.0 0.001580 551.69684 601.44781
598.0 0.001672 551.65662 609.20319
642.0 0.001558 551.61615 619.34576
650.0 0.001538 551.57544 632.52423
639.0 0.001565 551.53448 649.45227
676.0 0.001479 551.49323 670.86249
670.0 0.001493 551.45172 697.43701
705.0 0.001418 551.40997 729.71698
725.0 0.001379 551.36792 767.99780
717.0 0.001395 551.32568 812.22046
791.0 0.001264 551.28314 861.86267
890.0 0.001124 551.24030 915.84265
900.0 0.001111 551.19727 972.42456
962.0 0.001040 551.15393 1029.13831
1006.0 0.000994 551.11035 1082.72534
1062.0 0.000942 551.06653 1129.20447
1094.0 0.000914 551.02240 1164.21057
1098.0 0.000911 550.97797 1183.75989
1177.0 0.000850 550.93335 1185.32288
1072.0 0.000933 550.88843 1168.69580
1068.0 0.000936 550.84326 1136.07446
1050.0 0.000952 550.79779 1091.28455
957.0 0.001045 550.75208 1038.69287
920.0 0.001087 550.70612 982.37762
867.0 0.001153 550.65985 925.72461
848.0 0.001179 550.61334 871.33136
785.0 0.001274 550.56659 821.04810
731.0 0.001368 550.51947 776.05804
711.0 0.001406 550.47217 736.96881
686.0 0.001458 550.42456 703.90894
671.0 0.001490 550.37671 676.63440
630.0 0.001587 550.32855 654.63843
647.0 0.001546 550.28015 637.25708
615.0 0.001626 550.23145 623.76263
635.0 0.001575 550.18250 613.43640
630.0 0.001587 550.13324 605.62000
648.0 0.001543 550.08374 599.74438
623.0 0.001605 550.03394 595.34277
595.0 0.001681 549.98389 592.04730
583.0 0.001715 549.93353 589.57971
600.0 0.001667 549.88293 587.73676
603.0 0.001658 549.83203 586.37555
585.0 0.001709 549.78088 585.39929
606.0 0.001650 549.72943 584.74646
607.0 0.001647 549.67767 584.38165
616.0 0.001623 549.62567 584.29199
613.0 0.001631 549.57343 584.48438
637.0 0.001570 549.52087 584.98651
608.0 0.001645 549.46802 585.85175
605.0 0.001653 549.41492 587.16479
593.0 0.001686 549.36151 589.05322
626.0 0.001597 549.30786 591.69690
642.0 0.001558 549.25391 595.34229
624.0 0.001603 549.19965 600.31262
617.0 0.001621 549.14514 606.94696
651.0 0.001536 549.09033 615.87439
662.0 0.001511 549.03522 627.58783
640.0 0.001563 548.97986 642.69238
631.0 0.001585 548.92419 661.78784
658.0 0.001520 548.86829 685.40466
681.0 0.001468 548.81207 713.92456
718.0 0.001393 548.75555 747.49023
739.0 0.001353 548.69879 785.91443
785.0 0.001274 548.64166 828.59381
811.0 0.001233 548.58435 874.43164
898.0 0.001114 548.52667 921.76526
949.0 0.001054 548.46875 968.30579
962.0 0.001040 548.41052 1011.12292
1016.0 0.000984 548.35205 1046.76050
1041.0 0.000961 548.29327 1071.63159
1061.0 0.000943 548.23419 1082.75879
1069.0 0.000935 548.17487 1078.65527
1056.0 0.000947 548.11517 1059.85388
998.0 0.001002 548.05524 1028.71118
954.0 0.001048 547.99500 988.62872
947.0 0.001056 547.93451 943.19617
878.0 0.001139 547.87372 895.62622
841.0 0.001189 547.81262 848.52032
761.0 0.001314 547.75122 803.83740
708.0 0.001412 547.68958 762.93909
728.0 0.001374 547.62762 726.65717
680.0 0.001471 547.56537 695.40625
665.0 0.001504 547.50281 669.11646
668.0 0.001497 547.43994 647.54663
650.0 0.001538 547.37683 630.22632
629.0 0.001590 547.31348 616.57764
609.0 0.001642 547.24976 605.98950
615.0 0.001626 547.18579 597.87311
634.0 0.001577 547.12146 591.69812
622.0 0.001608 547.05688 587.01312
613.0 0.001631 546.99200 583.45215
630.0 0.001587 546.92688 580.72888
602.0 0.001661 546.86139 578.62958
584.0 0.001712 546.79565 576.99872
599.0 0.001669 546.72961 575.72681
611.0 0.001637 546.66327 574.73975
604.0 0.001656 546.59668 573.99036
595.0 0.001681 546.52972 573.45111
593.0 0.001686 546.46252 573.11060
584.0 0.001712 546.39502 572.97235
592.0 0.001689 546.32721 573.08179
575.0 0.001739 546.25916 573.42316
587.0 0.001704 546.19073 574.16046
580.0 0.001724 546.12207 575.22815
584.0 0.001712 546.05310 576.82935
577.0 0.001733 545.98383 579.13251
610.0 0.001639 545.91425 582.35620
615.0 0.001626 545.84442 586.76959
614.0 0.001629 545.77423 592.68976
611.0 0.001637 545.70380 600.44611
603.0 0.001658 545.63306 610.44330
633.0 0.001580 545.56201 622.99872
645.0 0.001550 545.49066 638.34906
645.0 0.001550 545.41901 656.71295
657.0 0.001522 545.34711 678.03174
679.0 0.001473 545.27490 702.05359
677.0 0.001477 545.20239 728.25018
723.0 0.001383 545.12958 755.77667
750.0 0.001333 545.05646 783.43353
778.0 0.001285 544.98303 809.64722
819.0 0.001221 544.90936 832.50012
821.0 0.001218 544.83539 849.88452
812.0 0.001232 544.76105 859.85242
851.0 0.001175 544.68646 861.11877
822.0 0.001217 544.61157 853.49133
807.0 0.001239 544.53644 837.94031
795.0 0.001258 544.46094 816.25952
760.0 0.001316 544.38519 790.55212
749.0 0.001335 544.30908 762.82074
708.0 0.001412 544.23273 734.75464
705.0 0.001418 544.15607 707.67065
676.0 0.001479 544.07910 682.52234
670.0 0.001493 544.00189 659.93231
652.0 0.001534 543.92432 640.23492
627.0 0.001595 543.84650 623.52234
610.0 0.001639 543.76837 609.68750
608.0 0.001645 543.68988 598.49255
607.0 0.001647 543.61115 589.61389
600.0 0.001667 543.53210 582.69012
622.0 0.001608 543.45282 577.36194
592.0 0.001689 543.37317 573.29706
588.0 0.001701 543.29327 570.20764
601.0 0.001664 543.21307 567.85522
595.0 0.001681 543.13257 566.05182
588.0 0.001701 543.05176 564.65472
591.0 0.001692 542.97064 563.55878
592.0 0.001689 542.88928 562.68890
599.0 0.001669 542.80756 561.99365
607.0 0.001647 542.72559 561.43872
610.0 0.001639 542.64325 561.00201
578.0 0.001730 542.56073 560.67163
587.0 0.001704 542.47784 560.44537
578.0 0.001730 542.39465 560.32275
610.0 0.001639 542.31122 560.32324
600.0 0.001667 542.22742 560.45313
591.0 0.001692 542.14343 560.75006
608.0 0.001645 542.05902 561.25769
594.0 0.001684 541.97443 562.03656
599.0 0.001669 541.88947 563.16364
578.0 0.001730 541.80426 564.73505
569.0 0.001757 541.71869 566.86407
567.0 0.001764 541.63293 569.67548
586.0 0.001706 541.54681 573.29816
580.0 0.001724 541.46039 577.85474
614.0 0.001629 541.37366 583.44409
625.0 0.001600 541.28668 590.12360
608.0 0.001645 541.19940 597.89020
628.0 0.001592 541.11182 606.66241
627.0 0.001595 541.02399 616.26215
630.0 0.001587 540.93579 626.39935
633.0 0.001580 540.84735 636.66077
659.0 0.001517 540.75854 646.49756
691.0 0.001447 540.66956 655.23657
703.0 0.001422 540.58020 662.12292
687.0 0.001456 540.49060 666.43506
709.0 0.001410 540.40063 667.65747
656.0 0.001524 540.31049 665.64673
644.0 0.001553 540.21997 660.68164
689.0 0.001451 540.12915 653.36780
662.0 0.001511 540.03815 644.45618
648.0 0.001543 539.94678 634.68579
635.0 0.001575 539.85510 624.69476
597.0 0.001675 539.76312 614.98877
632.0 0.001582 539.67090 605.96552
629.0 0.001590 539.57837 597.83398
639.0 0.001565 539.48553 590.76495
624.0 0.001603 539.39246 584.81537
609.0 0.001642 539.29907 579.96948
614.0 0.001629 539.20538 576.15833
606.0 0.001650 539.11139 573.27692
594.0 0.001684 539.01715 571.20422
617.0 0.001621 538.92261 569.81543
585.0 0.001709 538.82776 568.99475
588.0 0.001701 538.73267 568.64099
596.0 0.001678 538.63727 568.67114
620.0 0.001613 538.54156 569.02216
592.0 0.001689 538.44556 569.64960
599.0 0.001669 538.34937 570.52594
627.0 0.001595 538.25275 571.63922
588.0 0.001701 538.15588 572.99237
627.0 0.001595 538.05878 574.60382
580.0 0.001724 537.96143 576.50800
616.0 0.001623 537.86371 578.76233
632.0 0.001582 537.76575 581.45313
609.0 0.001642 537.66754 584.74945
644.0 0.001553 537.56897 588.74994
626.0 0.001597 537.47015 593.75488
619.0 0.001616 537.37103 600.12573
669.0 0.001495 537.27173 608.32672
642.0 0.001558 537.17206 618.99176
646.0 0.001548 537.07208 632.88318
679.0 0.001473 536.97192 650.94556
676.0 0.001479 536.87140 674.25592
710.0 0.001408 536.77057 703.98346
734.0 0.001362 536.66949 741.31140
789.0 0.001267 536.56818 787.32227
775.0 0.001290 536.46655 842.85681
828.0 0.001208 536.36469 908.35071
878.0 0.001139 536.26257 983.66486
962.0 0.001040 536.16010 1067.92163
1072.0 0.000933 536.05731 1159.35681
1192.0 0.000839 535.95428 1255.17896
1294.0 0.000773 535.85107 1351.45142
1374.0 0.000728 535.74750 1443.00781
1491.0 0.000671 535.64368 1523.53723
1571.0 0.000637 535.53955 1586.04712
1574.0 0.000635 535.43524 1623.94202
1595.0 0.000627 535.33057 1632.63013
1546.0 0.000647 535.22559 1610.97510
1524.0 0.000656 535.12048 1561.70264
1438.0 0.000695 535.01495 1490.45959
1284.0 0.000779 534.90924 1404.18225
1219.0 0.000820 534.80316 1309.66858
1142.0 0.000876 534.69696 1212.77295
1047.0 0.000955 534.59039 1118.13843
951.0 0.001052 534.48352 1029.20337
874.0 0.001144 534.37653 948.30792
815.0 0.001227 534.26917 876.82422
818.0 0.001222 534.16150 815.29840
754.0 0.001326 534.05359 763.60510
729.0 0.001372 533.94550 721.11658
676.0 0.001479 533.83704 686.87061
657.0 0.001522 533.72833 659.72498
643.0 0.001555 533.61945 638.49139
628.0 0.001592 533.51019 622.02991
632.0 0.001582 533.40070 609.31879
633.0 0.001580 533.29089 599.48669
626.0 0.001597 533.18097 591.82275
585.0 0.001709 533.07068 585.76862
604.0 0.001656 532.96008 580.90125
603.0 0.001658 532.84930 576.90710
578.0 0.001730 532.73828 573.56067
590.0 0.001695 532.62695 570.70264
594.0 0.001684 532.51532 568.22107
578.0 0.001730 532.40356 566.03839
587.0 0.001704 532.29144 564.10022
590.0 0.001695 532.17908 562.37006
629.0 0.001590 532.06647 560.82184
609.0 0.001642 531.95367 559.43817
574.0 0.001742 531.84052 558.20868
585.0 0.001709 531.72711 557.12933
633.0 0.001580 531.61353 556.20117
608.0 0.001645 531.49963 555.43036
575.0 0.001739 531.38544 554.82709
598.0 0.001672 531.27106 554.40698
599.0 0.001669 531.15649 554.18628
594.0 0.001684 531.04156 554.18304
590.0 0.001695 530.92639 554.41260
583.0 0.001715 530.81110 554.88635
573.0 0.001745 530.69537 555.60602
560.0 0.001786 530.57947 556.56177
614.0 0.001629 530.46332 557.72870
594.0 0.001684 530.34698 559.06311
584.0 0.001712 530.23035 560.50104
602.0 0.001661 530.11340 561.95581
616.0 0.001623 529.99628 563.31604
589.0 0.001698 529.87897 564.37878
592.0 0.001689 529.76135 565.15088
588.0 0.001701 529.64343 565.43591
597.0 0.001675 529.52545 565.15973
593.0 0.001686 529.40704 564.31927
599.0 0.001669 529.28845 562.98865
590.0 0.001695 529.16962 561.28339
590.0 0.001695 529.05060 559.34363
571.0 0.001751 528.93127 557.31366
577.0 0.001733 528.81171 555.27386
580.0 0.001724 528.69202 553.32532
550.0 0.001818 528.57196 551.53046
597.0 0.001675 528.45172 549.93176
591.0 0.001692 528.33124 548.55280
573.0 0.001745 528.21057 547.40143
585.0 0.001709 528.08960 546.47363
565.0 0.001770 527.96838 545.75897
590.0 0.001695 527.84705 545.23297
569.0 0.001757 527.72534 544.87720
571.0 0.001751 527.60345 544.67090
564.0 0.001773 527.48132 544.59509
565.0 0.001770 527.35907 544.63397
569.0 0.001757 527.23645 544.77551
557.0 0.001795 527.11365 545.01202
584.0 0.001712 526.99060 545.34039
572.0 0.001748 526.86743 545.76074
581.0 0.001721 526.74396 546.27881
592.0 0.001689 526.62024 546.90454
559.0 0.001789 526.49640 547.65540
552.0 0.001812 526.37219 548.55719
563.0 0.001776 526.24786 549.64844
590.0 0.001695 526.12323 550.98474
592.0 0.001689 525.99847 552.64716
578.0 0.001730 525.87347 554.75134
606.0 0.001650 525.74823 557.44806
611.0 0.001637 525.62280 560.95166
570.0 0.001754 525.49713 565.53741
607.0 0.001647 525.37122 571.55438
607.0 0.001647 525.24506 579.42505
573.0 0.001745 525.11884 589.64069
604.0 0.001656 524.99231 602.73987
621.0 0.001610 524.86554 619.27673
617.0 0.001621 524.73865 639.76959
661.0 0.001513 524.61145 664.63654
676.0 0.001479 524.48407 694.12189
672.0 0.001488 524.35645 728.21558
746.0 0.001340 524.22876 766.57794
769.0 0.001300 524.10071 808.46771
797.0 0.001255 523.97247 852.68304
864.0 0.001157 523.84406 897.50818
887.0 0.001127 523.71552 940.67792
904.0 0.001106 523.58667 979.39917
984.0 0.001016 523.45764 1010.51849
1014.0 0.000986 523.32849 1030.93823
993.0 0.001007 523.19904 1038.29541
999.0 0.001001 523.06940 1031.66162
986.0 0.001014 522.93958 1011.86157
975.0 0.001026 522.80963 981.18951
898.0 0.001114 522.67938 942.71991
855.0 0.001170 522.54895 899.61932
822.0 0.001217 522.41846 854.71014
755.0 0.001325 522.28760 810.29242
712.0 0.001404 522.15662 768.11670
721.0 0.001387 522.02539 729.41541
712.0 0.001404 521.89410 694.95813
636.0 0.001572 521.76251 665.10846
614.0 0.001629 521.63074 639.89551
624.0 0.001603 521.49890 619.09058
614.0 0.001629 521.36676 602.31604
574.0 0.001742 521.23438 588.99829
586.0 0.001706 521.10187 578.61676
592.0 0.001689 520.96930 570.63257
536.0 0.001866 520.83636 564.55450
575.0 0.001739 520.70331 559.95844
603.0 0.001658 520.57007 556.49408
593.0 0.001686 520.43671 553.88708
564.0 0.001773 520.30310 551.92810
573.0 0.001745 520.16931 550.46509
564.0 0.001773 520.03546 549.39258
594.0 0.001684 519.90131 548.64099
563.0 0.001776 519.76703 548.17285
549.0 0.001821 519.63251 547.97485
553.0 0.001808 519.49792 548.05798
573.0 0.001745 519.36310 548.46356
527.0 0.001898 519.22809 549.24286
554.0 0.001805 519.09302 550.49597
564.0 0.001773 518.95770 552.35638
571.0 0.001751 518.82214 554.99994
564.0 0.001773 518.68646 558.65063
576.0 0.001736 518.55072 563.58118
577.0 0.001733 518.41473 570.10736
570.0 0.001754 518.27856 578.57770
581.0 0.001721 518.14233 589.35010
624.0 0.001603 518.00580 602.76251
588.0 0.001701 517.86914 619.09290
593.0 0.001686 517.73236 638.51239
649.0 0.001541 517.59546 661.03754
626.0 0.001597 517.45831 686.47961
672.0 0.001488 517.32104 714.40228
685.0 0.001460 517.18359 744.07831
732.0 0.001366 517.04608 774.45337
759.0 0.001318 516.90833 804.11536
776.0 0.001289 516.77039 831.29254
801.0 0.001248 516.63245 853.92792
824.0 0.001214 516.49426 869.90588
844.0 0.001185 516.35590 877.45679
825.0 0.001212 516.21741 875.63928
844.0 0.001185 516.07886 864.64563
799.0 0.001252 515.94006 845.73730
792.0 0.001263 515.80115 820.85028
764.0 0.001309 515.66217 792.11713
736.0 0.001359 515.52295 761.51434
684.0 0.001462 515.38354 730.69849
647.0 0.001546 515.24408 700.96008
632.0 0.001582 515.10449 673.24371
643.0 0.001555 514.96472 648.16888
608.0 0.001645 514.82483 626.08752
590.0 0.001695 514.68488 607.11407
565.0 0.001770 514.54468 591.17377
562.0 0.001779 514.40436 578.05280
556.0 0.001799 514.26392 567.44684
567.0 0.001764 514.12341 559.00446
574.0 0.001742 513.98273 552.36591
546.0 0.001832 513.84186 547.18793
595.0 0.001681 513.70093 543.16486
548.0 0.001825 513.55994 540.03564
568.0 0.001761 513.41870 537.58752
557.0 0.001795 513.27734 535.65302
546.0 0.001832 513.13605 534.10535
530.0 0.001887 512.99445 532.85144
526.0 0.001901 512.85272 531.82513
516.0 0.001938 512.71088 530.98401
532.0 0.001880 512.56909 530.29675
556.0 0.001799 512.42700 529.75092
559.0 0.001789 512.28485 529.34479
528.0 0.001894 512.14264 529.08771
535.0 0.001869 512.00024 529.00226
563.0 0.001776 511.85773 529.12305
527.0 0.001898 511.71512 529.50146
541.0 0.001848 511.57248 530.20502
539.0 0.001855 511.42966 531.31848
548.0 0.001825 511.28668 532.94464
533.0 0.001876 511.14377 535.19812
559.0 0.001789 511.00058 538.20105
530.0 0.001887 510.85733 542.07214
550.0 0.001818 510.71396 546.91254
560.0 0.001786 510.57059 552.79150
559.0 0.001789 510.42703 559.72699
584.0 0.001712 510.28336 567.66827
599.0 0.001669 510.13959 576.48236
600.0 0.001667 509.99585 585.93695
560.0 0.001786 509.85190 595.69122
606.0 0.001650 509.70786 605.28748
620.0 0.001613 509.56381 614.15216
618.0 0.001618 509.41959 621.61444
613.0 0.001631 509.27527 626.97723
608.0 0.001645 509.13083 629.64154
639.0 0.001565 508.98645 629.26385
633.0 0.001580 508.84189 625.86743
633.0 0.001580 508.69720 619.83429
605.0 0.001653 508.55255 611.78375
617.0 0.001621 508.40771 602.41443
590.0 0.001695 508.26279 592.38721
573.0 0.001745 508.11780 582.26270
557.0 0.001795 507.97281 572.48425
547.0 0.001828 507.82767 563.37781
560.0 0.001786 507.68243 555.16260
526.0 0.001901 507.53723 547.96136
548.0 0.001825 507.39185 541.81439
530.0 0.001887 507.24640 536.69666
526.0 0.001901 507.10086 532.53412
546.0 0.001832 506.95538 529.22150
539.0 0.001855 506.80972 526.63843
517.0 0.001934 506.66397 524.66315
506.0 0.001976 506.51819 523.18127
529.0 0.001890 506.37244 522.09186
539.0 0.001855 506.22650 521.31061
526.0 0.001901 506.08051 520.77155
527.0 0.001898 505.93457 520.42487
516.0 0.001938 505.78845 520.23529
502.0 0.001992 505.64227 520.18939
506.0 0.001976 505.49603 520.26202
538.0 0.001859 505.34985 520.46155
541.0 0.001848 505.20352 520.80084
543.0 0.001842 505.05713 521.30457
528.0 0.001894 504.91080 522.01361
531.0 0.001883 504.76428 522.98627
526.0 0.001901 504.61774 524.30463
550.0 0.001818 504.47116 526.07764
541.0 0.001848 504.32462 528.44641
547.0 0.001828 504.17792 531.58563
539.0 0.001855 504.03119 535.70447
563.0 0.001776 503.88452 541.04102
553.0 0.001808 503.73770 547.85303
555.0 0.001802 503.59082 556.40149
562.0 0.001779 503.44394 566.92719
550.0 0.001818 503.29709 579.62183
553.0 0.001808 503.15012 594.59485
609.0 0.001642 503.00311 611.83905
601.0 0.001664 502.85605 631.19611
623.0 0.001605 502.70911 652.32562
658.0 0.001520 502.56198 674.67639
665.0 0.001504 502.41483 697.46057
740.0 0.001351 502.26776 719.63330
747.0 0.001339 502.12057 739.89227
767.0 0.001304 501.97336 756.73645
757.0 0.001321 501.82608 768.63074
743.0 0.001346 501.67892 774.29572
759.0 0.001318 501.53165 773.04584
752.0 0.001330 501.38431 765.00934
738.0 0.001355 501.23709 751.08459
715.0 0.001399 501.08972 732.66534
682.0 0.001466 500.94235 711.30182
664.0 0.001506 500.79495 688.44519
611.0 0.001637 500.64764 665.32208
608.0 0.001645 500.50024 642.89728
591.0 0.001692 500.35281 621.88373
572.0 0.001748 500.20547 602.76556
594.0 0.001684 500.05801 585.82379
563.0 0.001776 499.91055 571.16766
526.0 0.001901 499.76309 558.76434
537.0 0.001862 499.61572 548.47540
552.0 0.001812 499.46823 540.09021
521.0 0.001919 499.32077 533.35901
523.0 0.001912 499.17328 528.01862
486.0 0.002058 499.02591 523.81781
516.0 0.001938 498.87845 520.52130
547.0 0.001828 498.73096 517.93158
516.0 0.001938 498.58359 515.88373
497.0 0.002012 498.43613 514.24518
518.0 0.001931 498.28867 512.94037
511.0 0.001957 498.14117 511.88708
541.0 0.001848 497.99387 510.96527
499.0 0.002004 497.84644 510.18097
514.0 0.001946 497.69901 509.50848
517.0 0.001934 497.55170 508.93204
478.0 0.002092 497.40430 508.44257
512.0 0.001953 497.25690 508.03891
495.0 0.002020 497.10953 507.72510
521.0 0.001919 496.96228 507.51111
511.0 0.001957 496.81497 507.41171
507.0 0.001972 496.66766 507.44745
491.0 0.002037 496.52048 507.64371
491.0 0.002037 496.37323 508.02945
500.0 0.002000 496.22598 508.63583
490.0 0.002041 496.07877 509.49387
484.0 0.002066 495.93170 510.63153
508.0 0.001969 495.78455 512.06830
503.0 0.001988 495.63742 513.81256
501.0 0.001996 495.49033 515.85608
470.0 0.002128 495.34338 518.17120
497.0 0.002012 495.19635 520.70447
502.0 0.001992 495.04935 523.37573
487.0 0.002053 494.90250 526.07385
530.0 0.001887 494.75558 528.65460
523.0 0.001912 494.60870 530.94342
507.0 0.001972 494.46185 532.74457
541.0 0.001848 494.31519 533.86847
525.0 0.001905 494.16846 534.16956
536.0 0.001866 494.02173 533.58862
528.0 0.001894 493.87518 532.17139
523.0 0.001912 493.72858 530.05286
516.0 0.001938 493.58200 527.41943
503.0 0.001988 493.43549 524.46698
513.0 0.001949 493.28912 521.37396
492.0 0.002033 493.14273 518.28796
504.0 0.001984 492.99637 515.32410
492.0 0.002033 492.85019 512.56635
485.0 0.002062 492.70392 510.07022
508.0 0.001969 492.55774 507.86667
491.0 0.002037 492.41162 505.96582
492.0 0.002033 492.26569 504.36014
492.0 0.002033 492.11966 503.03036
501.0 0.001996 491.97372 501.94901
476.0 0.002101 491.82785 501.08423
483.0 0.002070 491.68213 500.40372
522.0 0.001916 491.53638 499.90247
499.0 0.002004 491.39072 499.50171
491.0 0.002037 491.24524 499.20453
535.0 0.001869 491.09970 498.99295
495.0 0.002020 490.95422 498.85400
521.0 0.001919 490.80884 498.79562
493.0 0.002028 490.66364 498.78235
480.0 0.002083 490.51840 498.83160
495.0 0.002020 490.37323 498.95001
494.0 0.002024 490.22827 499.15030
486.0 0.002058 490.08325 499.45267
520.0 0.001923 489.93835 499.88623
513.0 0.001949 489.79352 500.49121
500.0 0.002000 489.64886 501.32150
508.0 0.001969 489.50421 502.44510
507.0 0.001972 489.35962 503.94720
474.0 0.002110 489.21524 505.92874
476.0 0.002101 489.07083 508.50458
512.0 0.001953 488.92651 511.79880
509.0 0.001965 488.78232 515.93781
501.0 0.001996 488.63831 521.03833
512.0 0.001953 488.49426 527.19446
532.0 0.001880 488.35031 534.46289
526.0 0.001901 488.20648 542.84625
538.0 0.001859 488.06287 552.27649
554.0 0.001805 487.91922 562.60120
527.0 0.001898 487.77567 573.56891
562.0 0.001779 487.63235 584.81793
587.0 0.001704 487.48901 595.86499
581.0 0.001721 487.34579 606.10370
609.0 0.001642 487.20267 614.82471
624.0 0.001603 487.05975 621.28168
614.0 0.001629 486.91687 624.81409
599.0 0.001669 486.77408 625.01019
593.0 0.001686 486.63147 621.82819
614.0 0.001629 486.48892 615.61090
601.0 0.001664 486.34647 606.98022
556.0 0.001799 486.20413 596.67719
567.0 0.001764 486.06198 585.42584
541.0 0.001848 485.91989 573.85638
548.0 0.001825 485.77789 562.47772
540.0 0.001852 485.63614 551.67603
540.0 0.001852 485.49438 541.72528
505.0 0.001980 485.35275 532.79523
511.0 0.001957 485.21127 524.97083
499.0 0.002004 485.07001 518.26300
509.0 0.001965 484.92874 512.62445
494.0 0.002024 484.78763 507.96750
472.0 0.002119 484.64664 504.17801
507.0 0.001972 484.50589 501.13110
494.0 0.002024 484.36514 498.70065
485.0 0.002062 484.22455 496.76950
482.0 0.002075 484.08420 495.23279
485.0 0.002062 483.94388 494.00156
483.0 0.002070 483.80368 493.00336
508.0 0.001969 483.66364 492.20432
461.0 0.002169 483.52383 491.51389
523.0 0.001912 483.38406 490.92184
471.0 0.002123 483.24442 490.40405
504.0 0.001984 483.10504 489.94370
492.0 0.002033 482.96570 489.52740
509.0 0.001965 482.82651 489.14703
485.0 0.002062 482.68744 488.79578
452.0 0.002212 482.54865 488.46933
454.0 0.002203 482.40988 488.16388
469.0 0.002132 482.27127 487.87723
502.0 0.001992 482.13293 487.60718
466.0 0.002146 481.99463 487.35223
490.0 0.002041 481.85648 487.11069
486.0 0.002058 481.71848 486.88177
487.0 0.002053 481.58075 486.66455
496.0 0.002016 481.44305 486.45825
503.0 0.001988 481.30554 486.26187
469.0 0.002132 481.16818 486.07520
457.0 0.002188 481.03110 485.89777
490.0 0.002041 480.89404 485.72888
472.0 0.002119 480.75717 485.56836
502.0 0.001992 480.62057 485.41620
479.0 0.002088 480.48401 485.27167
470.0 0.002128 480.34766 485.13510
473.0 0.002114 480.21143 485.00613
484.0 0.002066 480.07550 484.88498
474.0 0.002110 479.93964 484.77145
476.0 0.002101 479.80392 484.66571
492.0 0.002033 479.66849 484.56787
483.0 0.002070 479.53314 484.47809
496.0 0.002016 479.39798 484.39639
476.0 0.002101 479.26297 484.32361
499.0 0.002004 479.12823 484.25977
473.0 0.002114 478.99362 484.20520
459.0 0.002179 478.85913 484.16684
480.0 0.002083 478.72498 484.13284
473.0 0.002114 478.59085 484.10962
473.0 0.002114 478.45694 484.09845
467.0 0.002141 478.32321 484.09998
471.0 0.002123 478.18976 484.11545
470.0 0.002128 478.05640 484.14563
482.0 0.002075 477.92322 484.19171
486.0 0.002058 477.79025 484.25595
501.0 0.001996 477.65756 484.33942
493.0 0.002028 477.52496 484.44446
474.0 0.002110 477.39255 484.59064
500.0 0.002000 477.26044 484.74686
495.0 0.002020 477.12842 484.93411
500.0 0.002000 476.99658 485.15704
493.0 0.002028 476.86493 485.42242
473.0 0.002114 476.73361 485.73941
479.0 0.002088 476.60239 486.12027
493.0 0.002028 476.47134 486.58191
489.0 0.002045 476.34061 487.14893
470.0 0.002128 476.20999 487.85431
472.0 0.002119 476.07956 488.74402
499.0 0.002004 475.94934 489.87912
484.0 0.002066 475.81943 491.34033
498.0 0.002008 475.68961 493.23053
483.0 0.002070 475.56000 495.67709
518.0 0.001931 475.43073 498.83310
484.0 0.002066 475.30154 502.87415
501.0 0.001996 475.17258 507.99289
521.0 0.001919 475.04379 514.38940
528.0 0.001894 474.91537 522.25507
516.0 0.001938 474.78702 531.75452
518.0 0.001931 474.65891 543.00220
529.0 0.001890 474.53101 556.03754
536.0 0.001866 474.40341 570.80145
582.0 0.001718 474.27594 587.11053
568.0 0.001761 474.14871 604.63831
599.0 0.001669 474.02179 622.89392
611.0 0.001637 473.89499 641.20520
632.0 0.001582 473.76840 658.70752
624.0 0.001603 473.64203 674.35626
673.0 0.001486 473.51599 686.98718
695.0 0.001439 473.39008 695.46393
686.0 0.001458 473.26440 698.90240
682.0 0.001466 473.13904 696.90869
645.0 0.001550 473.01382 689.69977
673.0 0.001486 472.88882 678.03156
640.0 0.001563 472.76407 662.99280
597.0 0.001675 472.63962 645.75928
560.0 0.001786 472.51532 627.42200
568.0 0.001761 472.39127 608.90265
544.0 0.001838 472.26752 590.93140
532.0 0.001880 472.14392 574.05200
524.0 0.001908 472.02054 558.63904
501.0 0.001996 471.89743 544.91736
507.0 0.001972 471.77463 532.98157
527.0 0.001898 471.65198 522.82013
501.0 0.001996 471.52957 514.33856
502.0 0.001992 471.40741 507.38605
480.0 0.002083 471.28558 501.77805
475.0 0.002105 471.16391 497.31604
498.0 0.002008 471.04248 493.80521
485.0 0.002062 470.92139 491.06516
490.0 0.002041 470.80045 488.93762
493.0 0.002028 470.67975 487.28976
484.0 0.002066 470.55927 486.01434
502.0 0.001992 470.43918 485.02847
466.0 0.002146 470.31921 484.27087
452.0 0.002212 470.19952 483.69968
473.0 0.002114 470.08017 483.28897
512.0 0.001953 469.96097 483.02750
460.0 0.002174 469.84201 482.91794
500.0 0.002000 469.72333 482.97498
477.0 0.002096 469.60498 483.22827
506.0 0.001976 469.48682 483.71814
488.0 0.002049 469.36890 484.50211
467.0 0.002141 469.25131 485.65085
466.0 0.002146 469.13388 487.24814
460.0 0.002174 469.01675 489.38727
469.0 0.002132 468.89987 492.16727
482.0 0.002075 468.78333 495.68375
486.0 0.002058 468.66696 500.02032
494.0 0.002024 468.55087 505.23630
497.0 0.002012 468.43503 511.35416
515.0 0.001942 468.31955 518.34662
546.0 0.001832 468.20422 526.12463
529.0 0.001890 468.08920 534.52673
525.0 0.001905 467.97452 543.31024
544.0 0.001838 467.86002 552.14301
529.0 0.001890 467.74576 560.60046
579.0 0.001727 467.63177 568.17029
593.0 0.001686 467.51819 574.28430
594.0 0.001684 467.40475 578.38574
589.0 0.001698 467.29160 580.04028
584.0 0.001712 467.17880 579.04871
582.0 0.001718 467.06619 575.50983
583.0 0.001715 466.95386 569.78845
559.0 0.001789 466.84180 562.42041
560.0 0.001786 466.73010 553.96735
537.0 0.001862 466.61859 544.96765
511.0 0.001957 466.50735 535.88049
512.0 0.001953 466.39648 527.06989
522.0 0.001916 466.28580 518.80829
502.0 0.001992 466.17542 511.28409
517.0 0.001934 466.06531 504.61047
490.0 0.002041 465.95557 498.83408
491.0 0.002037 465.84601 493.94815
492.0 0.002033 465.73672 489.90460
489.0 0.002045 465.62775 486.62628
442.0 0.002262 465.51913 484.02075
468.0 0.002137 465.41071 481.98828
494.0 0.002024 465.30258 480.43298
517.0 0.001934 465.19482 479.26712
462.0 0.002165 465.08725 478.43896
489.0 0.002045 464.97998 477.83850
486.0 0.002058 464.87299 477.44202
486.0 0.002058 464.76639 477.21609
492.0 0.002033 464.65997 477.14020
477.0 0.002096 464.55386 477.20639
486.0 0.002058 464.44812 477.41055
492.0 0.002033 464.34259 477.78894
474.0 0.002110 464.23734 478.36447
479.0 0.002088 464.13239 479.18491
479.0 0.002088 464.02780 480.31653
460.0 0.002174 463.92343 481.84369
500.0 0.002000 463.81940 483.87225
492.0 0.002033 463.71567 486.52692
486.0 0.002058 463.61221 489.94986
493.0 0.002028 463.50903 494.29315
505.0 0.001980 463.40616 499.71198
511.0 0.001957 463.30365 506.35046
512.0 0.001953 463.20135 514.32605
519.0 0.001927 463.09937 523.71277
509.0 0.001965 462.99768 534.52075
550.0 0.001818 462.89636 546.67871
532.0 0.001880 462.79526 560.01593
552.0 0.001812 462.69449 574.24646
592.0 0.001689 462.59409 588.95490
616.0 0.001623 462.49390 603.58344
629.0 0.001590 462.39401 617.42609
636.0 0.001572 462.29443 629.64301
663.0 0.001508 462.19525 639.31665
646.0 0.001548 462.09628 645.57495
653.0 0.001531 461.99762 647.76929
683.0 0.001464 461.89932 645.64905
631.0 0.001585 461.80127 639.43408
626.0 0.001597 461.70352 629.75171
610.0 0.001639 461.60608 617.46478
603.0 0.001658 461.50903 603.49194
575.0 0.001739 461.41220 588.68042
587.0 0.001704 461.31570 573.74652
549.0 0.001821 461.21954 559.25739
544.0 0.001838 461.12366 545.63782
532.0 0.001880 461.02808 533.18152
511.0 0.001957 460.93280 522.06598
489.0 0.002045 460.83792 512.36920
501.0 0.001996 460.74326 504.08511
487.0 0.002053 460.64893 497.14377
499.0 0.002004 460.55490 491.42953
528.0 0.001894 460.46124 486.79962
483.0 0.002070 460.36783 483.09894
483.0 0.002070 460.27475 480.17456
496.0 0.002016 460.18207 477.88345
484.0 0.002066 460.08960 476.09912
489.0 0.002045 459.99747 474.71503
473.0 0.002114 459.90561 473.64407
488.0 0.002049 459.81418 472.81897
493.0 0.002028 459.72299 472.19019
480.0 0.002083 459.63211 471.72397
474.0 0.002110 459.54160 471.39963
465.0 0.002151 459.45135 471.20929
485.0 0.002062 459.36142 471.11325
483.0 0.002070 459.27182 471.21405
476.0 0.002101 459.18259 471.48572
483.0 0.002070 459.09363 471.96585
492.0 0.002033 459.00494 472.69769
486.0 0.002058 458.91669 473.73358
478.0 0.002092 458.82867 475.13190
490.0 0.002041 458.74097 476.95517
505.0 0.001980 458.65359 479.26477
482.0 0.002075 458.56662 482.11624
482.0 0.002075 458.47986 485.55029
500.0 0.002000 458.39346 489.58807
516.0 0.001938 458.30737 494.22104
484.0 0.002066 458.22165 499.40475
525.0 0.001905 458.13620 505.05176
521.0 0.001919 458.05109 511.02499
537.0 0.001862 457.96634 517.13239
536.0 0.001866 457.88187 523.12238
528.0 0.001894 457.79770 528.68286
566.0 0.001767 457.71387 533.45221
547.0 0.001828 457.63043 537.05011
565.0 0.001770 457.54724 539.13593
546.0 0.001832 457.46439 539.48468
562.0 0.001779 457.38190 538.04901
529.0 0.001890 457.29968 534.97455
529.0 0.001890 457.21780 530.55548
542.0 0.001845 457.13626 525.16199
535.0 0.001869 457.05505 519.17035
534.0 0.001873 456.97415 512.91882
536.0 0.001866 456.89359 506.68762
511.0 0.001957 456.81335 500.69794
496.0 0.002016 456.73343 495.11200
489.0 0.002045 456.65384 490.04025
494.0 0.002024 456.57455 485.54727
493.0 0.002028 456.49567 481.66006
506.0 0.001976 456.41702 478.37421
508.0 0.001969 456.33871 475.64328
487.0 0.002053 456.26074 473.42599
491.0 0.002037 456.18317 471.66299
490.0 0.002041 456.10583 470.29208
474.0 0.002110 456.02884 469.25198
478.0 0.002092 455.95224 468.48752
476.0 0.002101 455.87589 467.95084
474.0 0.002110 455.79990 467.60345
480.0 0.002083 455.72418 467.41745
473.0 0.002114 455.64890 467.37476
480.0 0.002083 455.57388 467.46753
481.0 0.002079 455.49918 467.69937
496.0 0.002016 455.42487 468.08505
478.0 0.002092 455.35083 468.65182
462.0 0.002165 455.27710 469.44128
478.0 0.002092 455.20374 470.51038
482.0 0.002075 455.13071 471.93280
513.0 0.001949 455.05798 473.79932
485.0 0.002062 454.98557 476.21759
494.0 0.002024 454.91357 479.30969
493.0 0.002028 454.84183 483.20636
505.0 0.001980 454.77042 488.04034
506.0 0.001976 454.69931 493.93588
506.0 0.001976 454.62860 500.99542
509.0 0.001965 454.55817 509.28485
506.0 0.001976 454.48807 518.81769
530.0 0.001887 454.41830 529.54034
551.0 0.001815 454.34891 541.31610
536.0 0.001866 454.27979 553.91248
555.0 0.001802 454.21100 566.98901
562.0 0.001779 454.14261 580.08661
593.0 0.001686 454.07446 592.62012
602.0 0.001661 454.00665 603.88562
601.0 0.001664 453.93918 613.10107
595.0 0.001681 453.87210 619.49573
610.0 0.001639 453.80527 622.45068
634.0 0.001577 453.73877 621.65295
607.0 0.001647 453.67267 617.18616
614.0 0.001629 453.60681 609.50397
575.0 0.001739 453.54132 599.30707
573.0 0.001745 453.47614 587.38568
565.0 0.001770 453.41132 574.49847
580.0 0.001724 453.34680 561.30353
548.0 0.001825 453.28262 548.33466
516.0 0.001938 453.21878 536.00232
525.0 0.001905 453.15524 524.60205
535.0 0.001869 453.09201 514.32819
500.0 0.002000 453.02911 505.30969
491.0 0.002037 452.96661 497.51099
528.0 0.001894 452.90436 490.92715
483.0 0.002070 452.84244 485.47699
508.0 0.001969 452.78085 481.04825
485.0 0.002062 452.71964 477.51337
477.0 0.002096 452.65872 474.74115
489.0 0.002045 452.59808 472.60522
487.0 0.002053 452.53784 470.99234
480.0 0.002083 452.47791 469.80511
503.0 0.001988 452.41824 468.96460
491.0 0.002037 452.35895 468.41113
456.0 0.002193 452.29999 468.10367
491.0 0.002037 452.24133 468.01913
484.0 0.002066 452.18298 468.15271
497.0 0.002012 452.12503 468.51700
475.0 0.002105 452.06732 469.10300
478.0 0.002092 452.00995 470.03799
472.0 0.002119 451.95291 471.35049
466.0 0.002146 451.89621 473.12701
486.0 0.002058 451.83981 475.47247
502.0 0.001992 451.78372 478.50720
496.0 0.002016 451.72803 482.36267
511.0 0.001957 451.67258 487.17374
511.0 0.001957 451.61746 493.06982
501.0 0.001996 451.56265 500.16095
492.0 0.002033 451.50824 508.52524
484.0 0.002066 451.45407 518.19110
514.0 0.001946 451.40024 529.12396
519.0 0.001927 451.34671 541.20856
546.0 0.001832 451.29355 554.23877
582.0 0.001718 451.24066 567.90039
561.0 0.001783 451.18811 581.76245
566.0 0.001767 451.13589 595.26526
574.0 0.001742 451.08398 607.72272
608.0 0.001645 451.03235 618.34576
604.0 0.001656 450.98105 626.31641
631.0 0.001585 450.93011 630.91058
594.0 0.001684 450.87946 631.66119
610.0 0.001639 450.82913 628.48822
603.0 0.001658 450.77911 621.70160
582.0 0.001718 450.72940 611.94360
558.0 0.001792 450.67999 600.01263
550.0 0.001818 450.63092 586.72119
553.0 0.001808 450.58215 572.80280
562.0 0.001779 450.53369 558.86969
520.0 0.001923 450.48557 545.40485
506.0 0.001976 450.43774 532.77429
490.0 0.002041 450.39023 521.21649
520.0 0.001923 450.34302 510.88730
502.0 0.001992 450.29611 501.85239
502.0 0.001992 450.24954 494.10773
456.0 0.002193 450.20325 487.59286
497.0 0.002012 450.15729 482.20901
490.0 0.002041 450.11160 477.83282
473.0 0.002114 450.06628 474.33359
470.0 0.002128 450.02121 471.56989
494.0 0.002024 449.97647 469.41919
450.0 0.002222 449.93207 467.76938
476.0 0.002101 449.88794 466.52518
462.0 0.002165 449.84412 465.61050
484.0 0.002066 449.80060 464.96774
485.0 0.002062 449.75742 464.55716
477.0 0.002096 449.71451 464.31189
480.0 0.002083 449.67188 464.31656
495.0 0.002020 449.62961 464.53726
494.0 0.002024 449.58762 465.00159
477.0 0.002096 449.54590 465.75360
516.0 0.001938 449.50449 466.85739
490.0 0.002041 449.46341 468.38251
483.0 0.002070 449.42261 470.42313
486.0 0.002058 449.38211 473.08167
472.0 0.002119 449.34192 476.46585
495.0 0.002020 449.30203 480.68222
499.0 0.002004 449.26242 485.82626
496.0 0.002016 449.22308 491.97128
496.0 0.002016 449.18411 499.15436
492.0 0.002033 449.14539 507.36496
509.0 0.001965 449.10696 516.53143
533.0 0.001876 449.06882 526.51001
530.0 0.001887 449.03101 537.07452
548.0 0.001825 448.99347 547.90704
551.0 0.001815 448.95621 558.59149
582.0 0.001718 448.91925 568.62439
590.0 0.001695 448.88260 577.37799
615.0 0.001626 448.84619 584.22034
608.0 0.001645 448.81009 588.55353
619.0 0.001616 448.77432 589.94464
602.0 0.001661 448.73880 588.23883
555.0 0.001802 448.70358 583.60425
591.0 0.001692 448.66864 576.48236
558.0 0.001792 448.63400 567.47565
558.0 0.001792 448.59961 557.22736
551.0 0.001815 448.56552 546.33667
554.0 0.001805 448.53174 535.31403
530.0 0.001887 448.49820 524.57141
501.0 0.001996 448.46497 514.42163
500.0 0.002000 448.43204 505.08643
475.0 0.002105 448.39935 496.70517
500.0 0.002000 448.36694 489.34583
500.0 0.002000 448.33484 483.01593
478.0 0.002092 448.30301 477.67474
496.0 0.002016 448.27142 473.24670
472.0 0.002119 448.24014 469.63440
480.0 0.002083 448.20914 466.72900
481.0 0.002079 448.17841 464.42017
477.0 0.002096 448.14795 462.60358
444.0 0.002252 448.11774 461.18494
481.0 0.002079 448.08786 460.08331
467.0 0.002141 448.05820 459.23187
465.0 0.002151 448.02881 458.57797
455.0 0.002198 447.99969 458.08176
447.0 0.002237 447.97089 457.71552
457.0 0.002188 447.94232 457.46155
464.0 0.002155 447.91400 457.31158
495.0 0.002020 447.88599 457.26553
493.0 0.002028 447.85822 457.33078
483.0 0.002070 447.83072 457.52087
468.0 0.002137 447.80347 457.85605
488.0 0.002049 447.77649 458.36139
474.0 0.002110 447.74979 459.06622
473.0 0.002114 447.72333 460.00183
475.0 0.002105 447.69711 461.19937
473.0 0.002114 447.67120 462.68750
522.0 0.001916 447.64551 464.48831
456.0 0.002193 447.62009 466.61301
462.0 0.002165 447.59494 469.05887
476.0 0.002101 447.57001 471.80527
482.0 0.002075 447.54535 474.81015
488.0 0.002049 447.52097 478.00632
496.0 0.002016 447.49683 481.30014
520.0 0.001923 447.47293 484.56808
511.0 0.001957 447.44928 487.65671
507.0 0.001972 447.42587 490.38623
507.0 0.001972 447.40274 492.56207
477.0 0.002096 447.37982 493.99951
508.0 0.001969 447.35718 494.58453
494.0 0.002024 447.33478 494.20880
512.0 0.001953 447.31262 492.93475
483.0 0.002070 447.29068 490.88589
476.0 0.002101 447.26904 488.23972
530.0 0.001887 447.24759 485.19119
494.0 0.002024 447.22638 481.92517
472.0 0.002119 447.20541 478.60934
485.0 0.002062 447.18472 475.35809
488.0 0.002049 447.16425 472.28009
512.0 0.001953 447.14401 469.44809
493.0 0.002028 447.12399 466.90948
470.0 0.002128 447.10425 464.68976
479.0 0.002088 447.08469 462.79553
475.0 0.002105 447.06537 461.21811
487.0 0.002053 447.04630 459.93805
441.0 0.002268 447.02747 458.92792
475.0 0.002105 447.00885 458.15707
504.0 0.001984 446.99045 457.59439
457.0 0.002188 446.97232 457.21030
476.0 0.002101 446.95438 456.97943
493.0 0.002028 446.93668 456.88110
439.0 0.002278 446.91919 456.90140
441.0 0.002268 446.90192 457.03287
484.0 0.002066 446.88489 457.27628
499.0 0.002004 446.86804 457.63986
481.0 0.002079 446.85147 458.14209
491.0 0.002037 446.83508 458.81094
491.0 0.002037 446.81891 459.68677
462.0 0.002165 446.80298 460.82150
463.0 0.002160 446.78723 462.28052
490.0 0.002041 446.77170 464.14215
492.0 0.002033 446.75638 466.49551
498.0 0.002008 446.74130 469.43875
479.0 0.002088 446.72641 473.07312
488.0 0.002049 446.71173 477.49747
510.0 0.001961 446.69730 482.79797
490.0 0.002041 446.68301 489.03928
474.0 0.002110 446.66898 496.25308
497.0 0.002012 446.65509 504.42569
495.0 0.002020 446.64145 513.48859
497.0 0.002012 446.62799 523.30695
508.0 0.001969 446.61475 533.67169
539.0 0.001855 446.60172 544.29053
559.0 0.001789 446.58887 554.78131
547.0 0.001828 446.57623 564.66956
555.0 0.001802 446.56378 573.40070
564.0 0.001773 446.55148 580.37646
581.0 0.001721 446.53943 585.03192
606.0 0.001650 446.52756 586.94183
559.0 0.001789 446.51587 585.92560
558.0 0.001792 446.50439 582.09723
576.0 0.001736 446.49307 575.83380
572.0 0.001748 446.48196 567.67981
568.0 0.001761 446.47104 558.23419
528.0 0.001894 446.46030 548.06836
520.0 0.001923 446.44971 537.67834
499.0 0.002004 446.43933 527.46936
487.0 0.002053 446.42917 517.75586
506.0 0.001976 446.41913 508.76700
530.0 0.001887 446.40930 500.65668
463.0 0.002160 446.39966 493.50964
475.0 0.002105 446.39017 487.35361
475.0 0.002105 446.38086 482.16916
496.0 0.002016 446.37170 477.90164
468.0 0.002137 446.36273 474.47223
492.0 0.002033 446.35394 471.78897
491.0 0.002037 446.34534 469.75552
500.0 0.002000 446.33688 468.28326
482.0 0.002075 446.32858 467.28491
504.0 0.001984 446.32047 466.69547
492.0 0.002033 446.31250 466.46466
488.0 0.002049 446.30472 466.56146
502.0 0.001992 446.29709 466.97638
484.0 0.002066 446.28961 467.72247
522.0 0.001916 446.28229 468.83749
475.0 0.002105 446.27515 470.38571
481.0 0.002079 446.26816 472.45935
471.0 0.002123 446.26132 475.18021
497.0 0.002012 446.25464 478.70026
487.0 0.002053 446.24808 483.19922
497.0 0.002012 446.24170 488.88077
496.0 0.002016 446.23547 495.96429
501.0 0.001996 446.22940 504.67322
498.0 0.002008 446.22345 515.20697
507.0 0.001972 446.21768 527.76862
516.0 0.001938 446.21204 542.47119
538.0 0.001859 446.20651 559.35895
533.0 0.001876 446.20117 578.37360
557.0 0.001795 446.19592 599.32910
577.0 0.001733 446.19086 621.89105
620.0 0.001613 446.18591 645.55615
630.0 0.001587 446.18109 669.63440
669.0 0.001495 446.17642 693.23425
707.0 0.001414 446.17191 715.26044
696.0 0.001437 446.16748 734.44653
733.0 0.001364 446.16321 749.45026
759.0 0.001318 446.15906 759.03333
759.0 0.001318 446.15506 762.30420
740.0 0.001351 446.15115 758.93634
722.0 0.001385 446.14740 749.26056
717.0 0.001395 446.14377 734.17303
678.0 0.001475 446.14023 714.91241
651.0 0.001536 446.13684 692.82184
631.0 0.001585 446.13358 669.16620
609.0 0.001642 446.13040 645.03876
596.0 0.001678 446.12735 621.32886
539.0 0.001855 446.12442 598.72614
545.0 0.001835 446.12161 577.73059
535.0 0.001869 446.11893 558.67627
520.0 0.001923 446.11633 541.74719
514.0 0.001946 446.11386 527.00092
509.0 0.001965 446.11148 514.39215
525.0 0.001905 446.10922 503.79428
503.0 0.001988 446.10706 495.02786
468.0 0.002137 446.10501 487.88095
503.0 0.001988 446.10306 482.12927
484.0 0.002066 446.10120 477.55243
510.0 0.001961 446.09946 473.94617
508.0 0.001969 446.09781 471.12909
502.0 0.001992 446.09625 468.94791
503.0 0.001988 446.09479 467.27798
460.0 0.002174 446.09341 466.02307
484.0 0.002066 446.09213 465.11365
488.0 0.002049 446.09094 464.50494
471.0 0.002123 446.08987 464.17307
490.0 0.002041 446.08887 464.11374
474.0 0.002110 446.08795 464.34003
464.0 0.002155 446.08713 464.88007
475.0 0.002105 446.08636 465.77368
488.0 0.002049 446.08569 467.07126
474.0 0.002110 446.08511 468.82840
500.0 0.002000 446.08459 471.10260
458.0 0.002183 446.08417 473.94720
469.0 0.002132 446.08383 477.40601
515.0 0.001942 446.08356 481.50531
492.0 0.002033 446.08334 486.24725
485.0 0.002062 446.08322 491.60355
495.0 0.002020 446.08316 497.50723
511.0 0.001957 446.08316 503.84839
514.0 0.001946 446.08322 510.46826
505.0 0.001980 446.08337 517.15417
537.0 0.001862 446.08359 523.63641
526.0 0.001901 446.08386 529.58936
525.0 0.001905 446.08420 534.64520
537.0 0.001862 446.08459 538.42596
563.0 0.001776 446.08502 540.60132
517.0 0.001934 446.08551 540.95007
550.0 0.001818 446.08609 539.42596
553.0 0.001808 446.08670 536.16455
519.0 0.001927 446.08737 531.44690
534.0 0.001873 446.08810 525.63477
529.0 0.001890 446.08887 519.10559
513.0 0.001949 446.08969 512.22394
487.0 0.002053 446.09058 505.25473
514.0 0.001946 446.09146 498.45398
498.0 0.002008 446.09241 492.00552
497.0 0.002012 446.09341 486.04172
482.0 0.002075 446.09445 480.64844
476.0 0.002101 446.09552 475.87027
488.0 0.002049 446.09665 471.71768
459.0 0.002179 446.09781 468.17255
497.0 0.002012 446.09900 465.19589
494.0 0.002024 446.10022 462.73434
492.0 0.002033 446.10144 460.72592
460.0 0.002174 446.10272 459.10696
457.0 0.002188 446.10403 457.81540
454.0 0.002203 446.10538 456.79382
468.0 0.002137 446.10675 455.99237
468.0 0.002137 446.10812 455.36810
500.0 0.002000 446.10956 454.88733
477.0 0.002096 446.11099 454.52386
487.0 0.002053 446.11243 454.25943
493.0 0.002028 446.11389 454.08170
456.0 0.002193 446.11539 453.98547
474.0 0.002110 446.11688 453.97028
470.0 0.002128 446.11838 454.04034
464.0 0.002155 446.11990 454.20557
450.0 0.002222 446.12146 454.47455
460.0 0.002174 446.12302 454.86276
476.0 0.002101 446.12454 455.38504
466.0 0.002146 446.12610 456.05643
472.0 0.002119 446.12766 456.89078
475.0 0.002105 446.12924 457.89728
466.0 0.002146 446.13080 459.08081
468.0 0.002137 446.13239 460.43863
483.0 0.002070 446.13394 461.95874
489.0 0.002045 446.13553 463.61874
474.0 0.002110 446.13708 465.38364
498.0 0.002008 446.13861 467.20508
483.0 0.002070 446.14017 469.01993
476.0 0.002101 446.14169 470.74966
487.0 0.002053 446.14325 472.30261
495.0 0.002020 446.14474 473.57626
502.0 0.001992 446.14627 474.47318
484.0 0.002066 446.14774 474.91351
491.0 0.002037 446.14923 474.85406
476.0 0.002101 446.15067 474.30054
493.0 0.002028 446.15210 473.30447
484.0 0.002066 446.15350 471.95120
488.0 0.002049 446.15488 470.34106
471.0 0.002123 446.15625 468.57367
451.0 0.002217 446.15759 466.73911
472.0 0.002119 446.15891 464.91248
482.0 0.002075 446.16022 463.15320
476.0 0.002101 446.16144 461.50705
460.0 0.002174 446.16266 460.00601
481.0 0.002079 446.16385 458.67026
462.0 0.002165 446.16501 457.50964
486.0 0.002058 446.16614 456.52493
462.0 0.002165 446.16724 455.71042
474.0 0.002110 446.16827 455.05527
494.0 0.002024 446.16928 454.54575
462.0 0.002165 446.17023 454.16638
483.0 0.002070 446.17114 453.90277
477.0 0.002096 446.17203 453.74133
477.0 0.002096 446.17285 453.67102
460.0 0.002174 446.17361 453.68436
433.0 0.002309 446.17435 453.77850
478.0 0.002092 446.17505 453.95462
484.0 0.002066 446.17566 454.21927
487.0 0.002053 446.17624 454.58521
458.0 0.002183 446.17676 455.07147
453.0 0.002208 446.17722 455.70355
459.0 0.002179 446.17761 456.51437
461.0 0.002169 446.17795 457.54346
455.0 0.002198 446.17825 458.83679
469.0 0.002132 446.17847 460.44449
456.0 0.002193 446.17862 462.42010
494.0 0.002024 446.17871 464.81540
440.0 0.002273 446.17871 467.67877
478.0 0.002092 446.17868 471.04800
465.0 0.002151 446.17856 474.94675
464.0 0.002155 446.17838 479.37732
503.0 0.001988 446.17813 484.31705
502.0 0.001992 446.17780 489.71109
514.0 0.001946 446.17740 495.46936
509.0 0.001965 446.17691 501.46112
513.0 0.001949 446.17636 507.51135
522.0 0.001916 446.17569 513.39716
537.0 0.001862 446.17496 518.85016
539.0 0.001855 446.17416 523.56354
516.0 0.001938 446.17328 527.21863
543.0 0.001842 446.17230 529.52863
554.0 0.001805 446.17123 530.29340
532.0 0.001880 446.17007 529.44891
521.0 0.001919 446.16885 527.08374
534.0 0.001873 446.16748 523.41620
538.0 0.001859 446.16608 518.74249
513.0 0.001949 446.16455 513.38245
524.0 0.001908 446.16293 507.63965
512.0 0.001953 446.16122 501.77570
501.0 0.001996 446.15942 496.00705
509.0 0.001965 446.15750 490.50262
485.0 0.002062 446.15549 485.38791
487.0 0.002053 446.15335 480.74829
483.0 0.002070 446.15115 476.63455
478.0 0.002092 446.14883 473.06708
488.0 0.002049 446.14639 470.04175
479.0 0.002088 446.14386 467.53467
471.0 0.002123 446.14120 465.50937
484.0 0.002066 446.13846 463.92047
444.0 0.002252 446.13559 462.72092
475.0 0.002105 446.13260 461.86420
469.0 0.002132 446.12949 461.30960
454.0 0.002203 446.12628 461.02502
462.0 0.002165 446.12296 460.98828
466.0 0.002146 446.11951 461.18982
469.0 0.002132 446.11591 461.63419
476.0 0.002101 446.11221 462.34161
477.0 0.002096 446.10843 463.34921
483.0 0.002070 446.10446 464.71103
473.0 0.002114 446.10040 466.49994
454.0 0.002203 446.09619 468.80710
452.0 0.002212 446.09189 471.73953
479.0 0.002088 446.08743 475.41870
492.0 0.002033 446.08282 479.97452
482.0 0.002075 446.07813 485.53812
496.0 0.002016 446.07327 492.23282
491.0 0.002037 446.06830 500.16315
500.0 0.002000 446.06317 509.40213
494.0 0.002024 446.05789 519.97296
499.0 0.002004 446.05249 531.84302
500.0 0.002000 446.04697 544.90533
536.0 0.001866 446.04129 558.96814
539.0 0.001855 446.03546 573.74371
564.0 0.001773 446.02951 588.83795
562.0 0.001779 446.02341 603.74207
595.0 0.001681 446.01715 617.83582
579.0 0.001727 446.01071 630.37793
617.0 0.001621 446.00418 640.58435
650.0 0.001538 445.99747 647.69519
617.0 0.001621 445.99060 651.10864
648.0 0.001543 445.98358 650.51422
615.0 0.001626 445.97644 645.97388
574.0 0.001742 445.96912 637.90326
598.0 0.001672 445.96164 627.00427
552.0 0.001812 445.95398 613.99274
553.0 0.001808 445.94620 599.68018
568.0 0.001761 445.93823 584.76746
505.0 0.001980 445.93015 569.84393
517.0 0.001934 445.92188 555.38202
505.0 0.001980 445.91342 541.74170
503.0 0.001988 445.90482 529.17944
502.0 0.001992 445.89606 517.86035
479.0 0.002088 445.88708 507.86728
485.0 0.002062 445.87799 499.21533
487.0 0.002053 445.86871 491.86432
491.0 0.002037 445.85925 485.73233
467.0 0.002141 445.84964 480.71063
457.0 0.002188 445.83984 476.67572
450.0 0.002222 445.82986 473.50040
456.0 0.002193 445.81973 471.06360
467.0 0.002141 445.80939 469.25629
476.0 0.002101 445.79889 467.98810
479.0 0.002088 445.78821 467.18951
473.0 0.002114 445.77734 466.81372
487.0 0.002053 445.76630 466.83862
450.0 0.002222 445.75507 467.26764
466.0 0.002146 445.74368 468.12778
501.0 0.001996 445.73209 469.47205
484.0 0.002066 445.72031 471.37589
487.0 0.002053 445.70831 473.93597
494.0 0.002024 445.69617 477.26743
491.0 0.002037 445.68384 481.49738
498.0 0.002008 445.67130 486.75815
515.0 0.001942 445.65857 493.17786
498.0 0.002008 445.64566 500.86816
508.0 0.001969 445.63254 509.91193
494.0 0.002024 445.61923 520.34796
491.0 0.002037 445.60571 532.15778
514.0 0.001946 445.59201 545.24976
547.0 0.001828 445.57813 559.44934
559.0 0.001789 445.56403 574.48492
556.0 0.001799 445.54974 589.97894
588.0 0.001701 445.53525 605.43896
598.0 0.001672 445.52057 620.25177
628.0 0.001592 445.50565 633.69214
640.0 0.001563 445.49054 644.95764
625.0 0.001600 445.47522 653.24359
619.0 0.001616 445.45972 657.86609
620.0 0.001613 445.44397 658.40070
636.0 0.001572 445.42804 654.78632
649.0 0.001541 445.41190 647.34509
621.0 0.001610 445.39557 636.68811
581.0 0.001721 445.37900 623.59943
584.0 0.001712 445.36224 608.89172
577.0 0.001733 445.34525 593.31824
546.0 0.001832 445.32803 577.52747
539.0 0.001855 445.31064 562.04828
517.0 0.001934 445.29300 547.29144
512.0 0.001953 445.27515 533.55847
496.0 0.002016 445.25708 521.05444
486.0 0.002058 445.23880 509.88803
469.0 0.002132 445.22031 500.09973
462.0 0.002165 445.20157 491.66422
478.0 0.002092 445.18262 484.50787
484.0 0.002066 445.16345 478.52252
475.0 0.002105 445.14410 473.57944
467.0 0.002141 445.12448 469.53970
462.0 0.002165 445.10464 466.26477
479.0 0.002088 445.08459 463.62476
447.0 0.002237 445.06430 461.50070
457.0 0.002188 445.04379 459.78973
434.0 0.002304 445.02301 458.40466
453.0 0.002208 445.00208 457.27847
481.0 0.002079 444.98087 456.34381
445.0 0.002247 444.95941 455.56067
446.0 0.002242 444.93774 454.89441
479.0 0.002088 444.91586 454.31970
444.0 0.002252 444.89374 453.81509
455.0 0.002198 444.87137 453.36691
455.0 0.002198 444.84879 452.96460
453.0 0.002208 444.82596 452.60001
438.0 0.002283 444.80289 452.26740
443.0 0.002257 444.77957 451.96207
472.0 0.002119 444.75604 451.68085
459.0 0.002179 444.73227 451.42044
463.0 0.002160 444.70825 451.17920
486.0 0.002058 444.68399 450.95493
491.0 0.002037 444.65948 450.74634
439.0 0.002278 444.63474 450.55191
477.0 0.002096 444.60974 450.37051
462.0 0.002165 444.58453 450.20120
453.0 0.002208 444.55908 450.04327
464.0 0.002155 444.53336 449.89563
476.0 0.002101 444.50742 449.75790
449.0 0.002227 444.48120 449.62927
436.0 0.002294 444.45474 449.50912
448.0 0.002232 444.42804 449.39749
431.0 0.002320 444.40112 449.29367
444.0 0.002252 444.37393 449.19727
483.0 0.002070 444.34647 449.10809
445.0 0.002247 444.31879 449.02585
453.0 0.002208 444.29086 448.95044
476.0 0.002101 444.26266 448.88187
447.0 0.002237 444.23422 448.81979
455.0 0.002198 444.20554 448.76401
425.0 0.002353 444.17661 448.71524
439.0 0.002278 444.14740 448.67300
467.0 0.002141 444.11795 448.63760
470.0 0.002128 444.08826 448.60928
462.0 0.002165 444.05829 448.58820
439.0 0.002278 444.02808 448.57513
440.0 0.002273 443.99765 448.57037
456.0 0.002193 443.96689 448.57492
427.0 0.002342 443.93591 448.59015
450.0 0.002222 443.90466 448.61713
437.0 0.002288 443.87320 448.65863
449.0 0.002227 443.84143 448.71710
467.0 0.002141 443.80942 448.79663
449.0 0.002227 443.77716 448.90286
484.0 0.002066 443.74463 449.04327
443.0 0.002257 443.71185 449.23065
445.0 0.002247 443.67877 449.46622
433.0 0.002309 443.64548 449.76968
460.0 0.002174 443.61191 450.15805
452.0 0.002212 443.57806 450.65143
448.0 0.002232 443.54395 451.27325
459.0 0.002179 443.50961 452.04901
461.0 0.002169 443.47501 453.00610
445.0 0.002247 443.44009 454.17184
475.0 0.002105 443.40497 455.57278
472.0 0.002119 443.36954 457.23138
439.0 0.002278 443.33386 459.16498
450.0 0.002222 443.29791 461.38156
482.0 0.002075 443.26172 463.87888
435.0 0.002299 443.22525 466.63980
462.0 0.002165 443.18851 469.63187
451.0 0.002217 443.15152 472.80334
459.0 0.002179 443.11423 476.08603
471.0 0.002123 443.07669 479.37885
498.0 0.002008 443.03888 482.56628
483.0 0.002070 443.00082 485.50659
484.0 0.002066 442.96249 488.03973
496.0 0.002016 442.92386 490.00034
494.0 0.002024 442.88501 491.25409
481.0 0.002079 442.84586 491.66730
485.0 0.002062 442.80643 491.21701
499.0 0.002004 442.76675 489.94287
473.0 0.002114 442.72681 487.95157
481.0 0.002079 442.68658 485.39325
471.0 0.002123 442.64609 482.43396
505.0 0.001980 442.60532 479.23297
468.0 0.002137 442.56433 475.93234
478.0 0.002092 442.52301 472.64993
475.0 0.002105 442.48145 469.48062
464.0 0.002155 442.43961 466.49603
465.0 0.002151 442.39749 463.74744
475.0 0.002105 442.35510 461.26773
462.0 0.002165 442.31244 459.07404
481.0 0.002079 442.26953 457.16943
453.0 0.002208 442.22635 455.54648
461.0 0.002169 442.18286 454.18921
473.0 0.002114 442.13916 453.07706
450.0 0.002222 442.09512 452.18570
463.0 0.002160 442.05084 451.49069
472.0 0.002119 442.00629 450.96924
439.0 0.002278 441.96149 450.60187
471.0 0.002123 441.91638 450.37234
488.0 0.002049 441.87100 450.27072
476.0 0.002101 441.82541 450.30231
465.0 0.002151 441.77948 450.45026
461.0 0.002169 441.73328 450.73288
458.0 0.002183 441.68680 451.16443
461.0 0.002169 441.64011 451.76749
431.0 0.002320 441.59311 452.56851
447.0 0.002237 441.54584 453.60016
454.0 0.002203 441.49829 454.89703
454.0 0.002203 441.45050 456.49649
468.0 0.002137 441.40240 458.43332
472.0 0.002119 441.35403 460.73767
495.0 0.002020 441.30542 463.43323
469.0 0.002132 441.25653 466.53006
481.0 0.002079 441.20734 470.02341
485.0 0.002062 441.15790 473.88953
470.0 0.002128 441.10822 478.08209
465.0 0.002151 441.05823 482.52829
462.0 0.002165 441.00797 487.12766
484.0 0.002066 440.95746 491.74792
470.0 0.002128 440.90665 496.22406
481.0 0.002079 440.85556 500.35907
477.0 0.002096 440.80423 503.93109
482.0 0.002075 440.75266 506.71124
516.0 0.001938 440.70078 508.49289
503.0 0.001988 440.64862 509.13318
493.0 0.002028 440.59622 508.57043
515.0 0.001942 440.54355 506.86035
504.0 0.001984 440.49054 504.14838
495.0 0.002020 440.43732 500.64160
490.0 0.002041 440.38388 496.56879
507.0 0.001972 440.33011 492.15320
485.0 0.002062 440.27606 487.59293
478.0 0.002092 440.22174 483.05505
484.0 0.002066 440.16724 478.67294
446.0 0.002242 440.11240 474.54935
487.0 0.002053 440.05728 470.75851
473.0 0.002114 440.00192 467.34842
501.0 0.001996 439.94629 464.34537
472.0 0.002119 439.89038 461.75604
458.0 0.002183 439.83423 459.57239
438.0 0.002283 439.77783 457.77460
490.0 0.002041 439.72113 456.33630
461.0 0.002169 439.66415 455.22714
470.0 0.002128 439.60696 454.41727
448.0 0.002232 439.54947 453.88019
481.0 0.002079 439.49170 453.59518
475.0 0.002105 439.43369 453.55060
454.0 0.002203 439.37546 453.74463
460.0 0.002174 439.31689 454.18729
456.0 0.002193 439.25809 454.90231
450.0 0.002222 439.19907 455.92712
455.0 0.002198 439.13974 457.31357
462.0 0.002165 439.08014 459.12769
464.0 0.002155 439.02029 461.44815
440.0 0.002273 438.96024 464.36414
453.0 0.002208 438.89984 467.97198
455.0 0.002198 438.83923 472.36914
475.0 0.002105 438.77835 477.64777
470.0 0.002128 438.71725 483.88754
469.0 0.002132 438.65585 491.14438
486.0 0.002058 438.59421 499.44305
489.0 0.002045 438.53232 508.76584
495.0 0.002020 438.47015 519.04395
510.0 0.001961 438.40771 530.14935
527.0 0.001898 438.34506 541.88489
525.0 0.001905 438.28217 553.97986
532.0 0.001880 438.21899 566.08179
554.0 0.001805 438.15558 577.75269
542.0 0.001845 438.09192 588.47479
578.0 0.001730 438.02798 597.66846
550.0 0.001818 437.96378 604.74133
559.0 0.001789 437.89935 609.16602
571.0 0.001751 437.83472 610.57666
598.0 0.001672 437.76978 608.85004
581.0 0.001721 437.70462 604.13702
574.0 0.001742 437.63922 596.82507
538.0 0.001859 437.57355 587.45313
532.0 0.001880 437.50763 576.61548
529.0 0.001890 437.44147 564.88763
506.0 0.001976 437.37509 552.78113
519.0 0.001927 437.30844 540.72479
507.0 0.001972 437.24155 529.06415
476.0 0.002101 437.17441 518.06348
490.0 0.002041 437.10709 507.91238
485.0 0.002062 437.03949 498.73376
482.0 0.002075 436.97162 490.59277
464.0 0.002155 436.90356 483.50333
483.0 0.002070 436.83524 477.43970
506.0 0.001976 436.76666 472.34482
463.0 0.002160 436.69785 468.14157
457.0 0.002188 436.62885 464.74136
471.0 0.002123 436.55957 462.05212
458.0 0.002183 436.49005 459.99646
450.0 0.002222 436.42038 458.47690
474.0 0.002110 436.35037 457.43918
475.0 0.002105 436.28018 456.83655
466.0 0.002146 436.20975 456.64160
452.0 0.002212 436.13913 456.84628
463.0 0.002160 436.06824 457.46246
465.0 0.002151 435.99710 458.52209
466.0 0.002146 435.92581 460.07507
477.0 0.002096 435.85425 462.18698
488.0 0.002049 435.78241 464.93564
483.0 0.002070 435.71039 468.40689
475.0 0.002105 435.63821 472.68881
472.0 0.002119 435.56573 477.85159
463.0 0.002160 435.49304 483.98718
481.0 0.002079 435.42014 491.12924
476.0 0.002101 435.34708 499.29150
486.0 0.002058 435.27371 508.44449
509.0 0.001965 435.20016 518.50934
518.0 0.001931 435.12640 529.34766
516.0 0.001938 435.05243 540.75629
554.0 0.001805 434.97821 552.45831
570.0 0.001754 434.90381 564.09814
565.0 0.001770 434.82922 575.24005
558.0 0.001792 434.75439 585.37372
591.0 0.001692 434.67932 593.93652
623.0 0.001605 434.60413 600.36499
587.0 0.001704 434.52866 604.18262
586.0 0.001706 434.45297 605.04736
622.0 0.001608 434.37711 602.89233
570.0 0.001754 434.30109 597.89703
600.0 0.001667 434.22479 590.45850
555.0 0.001802 434.14832 581.10541
547.0 0.001828 434.07169 570.40979
535.0 0.001869 433.99478 558.91687
520.0 0.001923 433.91769 547.11090
507.0 0.001972 433.84042 535.39551
517.0 0.001934 433.76300 524.09381
499.0 0.002004 433.68533 513.45453
492.0 0.002033 433.60745 503.65396
498.0 0.002008 433.52942 494.80710
471.0 0.002123 433.45123 486.97272
492.0 0.002033 433.37277 480.16260
447.0 0.002237 433.29416 474.35126
456.0 0.002193 433.21539 469.48395
488.0 0.002049 433.13638 465.48810
481.0 0.002079 433.05722 462.28098
450.0 0.002222 432.97784 459.77832
472.0 0.002119 432.89838 457.90186
463.0 0.002160 432.81863 456.58386
437.0 0.002288 432.73874 455.77811
470.0 0.002128 432.65869 455.43988
494.0 0.002024 432.57843 455.56287
468.0 0.002137 432.49799 456.15652
493.0 0.002028 432.41739 457.25333
477.0 0.002096 432.33667 458.90686
486.0 0.002058 432.25571 461.19141
473.0 0.002114 432.17459 464.19781
498.0 0.002008 432.09335 468.02954
497.0 0.002012 432.01190 472.79648
519.0 0.001927 431.93027 478.60757
465.0 0.002151 431.84845 485.56097
462.0 0.002165 431.76657 493.73434
482.0 0.002075 431.68445 503.17239
526.0 0.001901 431.60217 513.87573
491.0 0.002037 431.51974 525.79034
516.0 0.001938 431.43723 538.79614
503.0 0.001988 431.35449 552.69757
534.0 0.001873 431.27158 567.21454
562.0 0.001779 431.18857 581.97626
564.0 0.001773 431.10538 596.51276
619.0 0.001616 431.02200 610.25525
578.0 0.001730 430.93851 622.54779
600.0 0.001667 430.85492 632.68231
624.0 0.001603 430.77115 639.97192
607.0 0.001647 430.68719 643.85065
613.0 0.001631 430.60315 643.98615
623.0 0.001605 430.51895 640.35492
588.0 0.001701 430.43457 633.24652
566.0 0.001767 430.35007 623.20013
576.0 0.001736 430.26550 610.89130
553.0 0.001808 430.18076 597.02942
549.0 0.001821 430.09583 582.28058
537.0 0.001862 430.01086 567.22729
511.0 0.001957 429.92572 552.35217
497.0 0.002012 429.84039 538.04047
500.0 0.002000 429.75497 524.58337
505.0 0.001980 429.66949 512.18762
474.0 0.002110 429.58383 500.98199
489.0 0.002045 429.49805 491.02875
447.0 0.002237 429.41214 482.33273
463.0 0.002160 429.32617 474.85257
483.0 0.002070 429.24005 468.51251
463.0 0.002160 429.15378 463.21317
464.0 0.002155 429.06744 458.84964
435.0 0.002299 428.98096 455.29065
436.0 0.002294 428.89438 452.43033
447.0 0.002237 428.80768 450.16580
477.0 0.002096 428.72092 448.40677
453.0 0.002208 428.63400 447.07773
467.0 0.002141 428.54700 446.12106
463.0 0.002160 428.45993 445.49561
438.0 0.002283 428.37271 445.17596
468.0 0.002137 428.28537 445.15207
440.0 0.002273 428.19797 445.42654
442.0 0.002262 428.11053 446.01260
469.0 0.002132 428.02292 446.93097
500.0 0.002000 427.93521 448.20715
466.0 0.002146 427.84750 449.86914
474.0 0.002110 427.75964 451.94125
440.0 0.002273 427.67166 454.44122
441.0 0.002268 427.58362 457.37604
482.0 0.002075 427.49554 460.73816
459.0 0.002179 427.40735 464.50092
473.0 0.002114 427.31906 468.61523
480.0 0.002083 427.23071 473.00760
468.0 0.002137 427.14233 477.57568
450.0 0.002222 427.05383 482.18768
485.0 0.002062 426.96524 486.67926
488.0 0.002049 426.87665 490.85587
497.0 0.002012 426.78790 494.49802
493.0 0.002028 426.69913 497.37552
502.0 0.001992 426.61026 499.27554
494.0 0.002024 426.52142 500.03516
498.0 0.002008 426.43246 499.57581
483.0 0.002070 426.34341 497.92105
483.0 0.002070 426.25439 495.19199
493.0 0.002028 426.16522 491.57870
482.0 0.002075 426.07605 487.30518
488.0 0.002049 425.98679 482.59793
486.0 0.002058 425.89755 477.66522
456.0 0.002193 425.80820 472.68704
481.0 0.002079 425.71881 467.81091
482.0 0.002075 425.62946 463.15353
457.0 0.002188 425.53998 458.80197
445.0 0.002247 425.45044 454.81641
447.0 0.002237 425.36087 451.23294
462.0 0.002165 425.27136 448.06668
488.0 0.002049 425.18173 445.31439
437.0 0.002288 425.09207 442.96017
443.0 0.002257 425.00238 440.97684
455.0 0.002198 424.91272 439.33286
442.0 0.002262 424.82300 437.98978
421.0 0.002375 424.73322 436.91269
449.0 0.002227 424.64349 436.06827
478.0 0.002092 424.55368 435.43546
471.0 0.002123 424.46384 434.97318
463.0 0.002160 424.37399 434.67249
457.0 0.002188 424.28421 434.52237
467.0 0.002141 424.19434 434.51843
458.0 0.002183 424.10446 434.66312
450.0 0.002222 424.01462 434.96390
447.0 0.002237 423.92471 435.43350
452.0 0.002212 423.83481 436.08838
459.0 0.002179 423.74490 436.94748
445.0 0.002247 423.65506 438.02979
461.0 0.002169 423.56516 439.35342
467.0 0.002141 423.47525 440.93286
438.0 0.002283 423.38544 442.77701
454.0 0.002203 423.29553 444.88583
486.0 0.002058 423.20566 447.24948
455.0 0.002198 423.11578 449.84598
463.0 0.002160 423.02600 452.63828
465.0 0.002151 422.93616 455.57333
494.0 0.002024 422.84634 458.58090
473.0 0.002114 422.75653 461.57095
471.0 0.002123 422.66681 464.43460
499.0 0.002004 422.57706 467.04440
473.0 0.002114 422.48734 469.27045
481.0 0.002079 422.39767 470.95361
480.0 0.002083 422.30801 471.98160
478.0 0.002092 422.21838 472.27283
509.0 0.001965 422.12875 471.80292
492.0 0.002033 422.03928 470.61145
487.0 0.002053 421.94974 468.79153
479.0 0.002088 421.86026 466.47186
449.0 0.002227 421.77084 463.79501
460.0 0.002174 421.68146 460.89938
439.0 0.002278 421.59210 457.90933
457.0 0.002188 421.50278 454.93124
470.0 0.002128 421.41360 452.05167
444.0 0.002252 421.32440 449.33826
453.0 0.002208 421.23526 446.84238
456.0 0.002193 421.14621 444.59924
423.0 0.002364 421.05719 442.63092
449.0 0.002227 420.96820 440.94852
444.0 0.002252 420.87930 439.55344
427.0 0.002342 420.79053 438.44189
467.0 0.002141 420.70175 437.60529
441.0 0.002268 420.61304 437.03482
460.0 0.002174 420.52441 436.72388
468.0 0.002137 420.43591 436.67041
441.0 0.002268 420.34744 436.87961
460.0 0.002174 420.25903 437.36597
457.0 0.002188 420.17075 438.15582
460.0 0.002174 420.08252 439.28802
445.0 0.002247 419.99435 440.81577
433.0 0.002309 419.90628 442.80667
469.0 0.002132 419.81839 445.32651
454.0 0.002203 419.73050 448.50128
459.0 0.002179 419.64270 452.41864
442.0 0.002262 419.55505 457.18756
449.0 0.002227 419.46744 462.91647
450.0 0.002222 419.37994 469.70621
467.0 0.002141 419.29254 477.64114
481.0 0.002079 419.20529 486.78018
479.0 0.002088 419.11810 497.14566
477.0 0.002096 419.03104 508.71506
504.0 0.001984 418.94412 521.41022
528.0 0.001894 418.85727 535.08826
522.0 0.001916 418.77048 549.53461
527.0 0.001898 418.68387 564.45361
550.0 0.001818 418.59741 579.46191
576.0 0.001736 418.51102 594.08307
591.0 0.001692 418.42477 607.75055
598.0 0.001672 418.33862 619.81702
587.0 0.001704 418.25269 629.60455
609.0 0.001642 418.16678 636.46936
601.0 0.001664 418.08102 639.90436
640.0 0.001563 417.99545 639.63361
608.0 0.001645 417.90997 635.67590
601.0 0.001664 417.82465 628.33990
536.0 0.001866 417.73944 618.15558
553.0 0.001808 417.65445 605.77618
522.0 0.001916 417.56952 591.88086
522.0 0.001916 417.48474 577.10638
542.0 0.001845 417.40018 562.01093
556.0 0.001799 417.31570 547.06036
508.0 0.001969 417.23138 532.62744
481.0 0.002079 417.14722 518.99908
493.0 0.002028 417.06329 506.38141
478.0 0.002092 416.97943 494.91016
464.0 0.002155 416.89575 484.65762
479.0 0.002088 416.81232 475.64322
447.0 0.002237 416.72894 467.84152
464.0 0.002155 416.64575 461.19470
459.0 0.002179 416.56274 455.61844
460.0 0.002174 416.47995 451.01779
454.0 0.002203 416.39731 447.29129
438.0 0.002283 416.31479 444.34067
457.0 0.002188 416.23248 442.07629
444.0 0.002252 416.15042 440.42200
445.0 0.002247 416.06848 439.31778
438.0 0.002283 415.98672 438.72281
466.0 0.002146 415.90518 438.61475
454.0 0.002203 415.82379 438.99051
487.0 0.002053 415.74261 439.86371
490.0 0.002041 415.66162 441.26263
466.0 0.002146 415.58087 443.22729
462.0 0.002165 415.50027 445.80786
444.0 0.002252 415.41986 449.04684
460.0 0.002174 415.33969 452.99277
491.0 0.002037 415.25970 457.68103
449.0 0.002227 415.17990 463.13010
461.0 0.002169 415.10031 469.33826
484.0 0.002066 415.02100 476.26526
483.0 0.002070 414.94183 483.84439
478.0 0.002092 414.86288 491.96552
498.0 0.002008 414.78424 500.47263
534.0 0.001873 414.70572 509.16019
521.0 0.001919 414.62741 517.76910
519.0 0.001927 414.54935 525.99030
526.0 0.001901 414.47156 533.45294
543.0 0.001842 414.39395 539.76385
545.0 0.001835 414.31656 544.52649
546.0 0.001832 414.23941 547.39508
545.0 0.001835 414.16254 548.13422
527.0 0.001898 414.08585 546.66888
533.0 0.001876 414.00943 543.10016
531.0 0.001883 413.93326 537.68304
514.0 0.001946 413.85727 530.77393
507.0 0.001972 413.78156 522.77173
491.0 0.002037 413.70609 514.06775
488.0 0.002049 413.63092 505.01715
484.0 0.002066 413.55594 495.92374
497.0 0.002012 413.48120 487.03607
462.0 0.002165 413.40677 478.54996
468.0 0.002137 413.33255 470.61169
453.0 0.002208 413.25861 463.32236
442.0 0.002262 413.18491 456.74286
457.0 0.002188 413.11151 450.89835
468.0 0.002137 413.03833 445.78494
440.0 0.002273 412.96542 441.37430
443.0 0.002257 412.89285 437.62088
451.0 0.002217 412.82047 434.46732
443.0 0.002257 412.74835 431.85007
437.0 0.002288 412.67654 429.70416
466.0 0.002146 412.60504 427.96710
432.0 0.002315 412.53378 426.58176
444.0 0.002252 412.46277 425.49792
443.0 0.002257 412.39206 424.67484
458.0 0.002183 412.32169 424.08002
428.0 0.002336 412.25156 423.69186
440.0 0.002273 412.18170 423.49280
453.0 0.002208 412.11218 423.47623
434.0 0.002304 412.04291 423.64127
442.0 0.002262 411.97394 423.99091
449.0 0.002227 411.90524 424.53107
454.0 0.002203 411.83691 425.26968
445.0 0.002247 411.76883 426.21243
435.0 0.002299 411.70105 427.36325
431.0 0.002320 411.63358 428.72095
434.0 0.002304 411.56641 430.27811
446.0 0.002242 411.49954 432.01913
464.0 0.002155 411.43295 433.91840
447.0 0.002237 411.36676 435.94028
441.0 0.002268 411.30081 438.03616
459.0 0.002179 411.23520 440.14502
456.0 0.002193 411.16992 442.19156
460.0 0.002174 411.10495 444.08810
474.0 0.002110 411.04025 445.73553
460.0 0.002174 410.97589 447.03207
454.0 0.002203 410.91190 447.88220
458.0 0.002183 410.84821 448.21259
453.0 0.002208 410.78482 447.98596
477.0 0.002096 410.72177 447.20901
434.0 0.002304 410.65909 445.93094
455.0 0.002198 410.59671 444.23260
446.0 0.002242 410.53464 442.21228
485.0 0.002062 410.47296 439.97156
440.0 0.002273 410.41159 437.60532
464.0 0.002155 410.35056 435.19730
438.0 0.002283 410.28983 432.81674
431.0 0.002320 410.22952 430.52063
450.0 0.002222 410.16949 428.35147
441.0 0.002268 410.10983 426.34116
430.0 0.002326 410.05054 424.51001
441.0 0.002268 409.99158 422.86871
451.0 0.002217 409.93295 421.42041
418.0 0.002392 409.87466 420.16116
421.0 0.002375 409.81680 419.08188
423.0 0.002364 409.75925 418.17035
453.0 0.002208 409.70206 417.41174
424.0 0.002358 409.64526 416.79099
423.0 0.002364 409.58878 416.29370
427.0 0.002342 409.53262 415.90637
421.0 0.002375 409.47687 415.61862
424.0 0.002358 409.42154 415.42206
426.0 0.002347 409.36652 415.31137
419.0 0.002387 409.31186 415.28442
435.0 0.002299 409.25757 415.34155
419.0 0.002387 409.20370 415.48669
445.0 0.002247 409.15018 415.72479
411.0 0.002433 409.09702 416.06296
419.0 0.002387 409.04425 416.50879
416.0 0.002404 408.99185 417.07013
431.0 0.002320 408.93982 417.75360
429.0 0.002331 408.88818 418.56375
433.0 0.002309 408.83698 419.50217
400.0 0.002500 408.78610 420.56601
433.0 0.002309 408.73560 421.74734
448.0 0.002232 408.68552 423.03247
440.0 0.002273 408.63580 424.40054
450.0 0.002222 408.58646 425.82349
441.0 0.002268 408.53754 427.26440
412.0 0.002427 408.48904 428.68201
452.0 0.002212 408.44089 430.01468
474.0 0.002110 408.39316 431.20490
455.0 0.002198 408.34583 432.18716
455.0 0.002198 408.29889 432.89731
439.0 0.002278 408.25232 433.28265
446.0 0.002242 408.20615 433.31003
453.0 0.002208 408.16043 432.97366
461.0 0.002169 408.11508 432.29581
442.0 0.002262 408.07016 431.32214
443.0 0.002257 408.02560 430.11322
428.0 0.002336 407.98154 428.73523
454.0 0.002203 407.93781 427.25146
464.0 0.002155 407.89450 425.71951
419.0 0.002387 407.85162 424.18842
410.0 0.002439 407.80914 422.69815
437.0 0.002288 407.76709 421.28101
433.0 0.002309 407.72543 419.96069
420.0 0.002381 407.68423 418.75388
438.0 0.002283 407.64340 417.67108
447.0 0.002237 407.60303 416.71741
440.0 0.002273 407.56305 415.89322
427.0 0.002342 407.52350 415.19626
427.0 0.002342 407.48438 414.62091
418.0 0.002392 407.44565 414.16052
433.0 0.002309 407.40741 413.80902
430.0 0.002326 407.36954 413.56009
426.0 0.002347 407.33212 413.40985
406.0 0.002463 407.29517 413.35623
438.0 0.002283 407.25858 413.40012
429.0 0.002331 407.22241 413.54636
413.0 0.002421 407.18671 413.80237
418.0 0.002392 407.15146 414.17926
430.0 0.002326 407.11664 414.69177
415.0 0.002410 407.08221 415.35672
416.0 0.002404 407.04825 416.19330
430.0 0.002326 407.01474 417.22079
416.0 0.002404 406.98163 418.45786
398.0 0.002513 406.94897 419.92160
444.0 0.002252 406.91678 421.62592
428.0 0.002336 406.88498 423.57309
420.0 0.002381 406.85364 425.76331
458.0 0.002183 406.82275 428.18466
433.0 0.002309 406.79233 430.81375
462.0 0.002165 406.76233 433.61359
446.0 0.002242 406.73276 436.53281
436.0 0.002294 406.70364 439.50430
466.0 0.002146 406.67499 442.44351
440.0 0.002273 406.64676 445.24933
448.0 0.002232 406.61899 447.80463
466.0 0.002146 406.59167 449.98227
464.0 0.002155 406.56482 451.65472
449.0 0.002227 406.53839 452.70990
472.0 0.002119 406.51245 453.06940
448.0 0.002232 406.48691 452.70514
460.0 0.002174 406.46185 451.64380
427.0 0.002342 406.43723 449.96207
436.0 0.002294 406.41309 447.77155
430.0 0.002326 406.38937 445.19943
436.0 0.002294 406.36615 442.37329
458.0 0.002183 406.34335 439.41077
421.0 0.002375 406.32104 436.41364
446.0 0.002242 406.29916 433.46658
433.0 0.002309 406.27774 430.63821
450.0 0.002222 406.25681 427.98004
421.0 0.002375 406.23630 425.52975
419.0 0.002387 406.21625 423.31119
411.0 0.002433 406.19669 421.33710
421.0 0.002375 406.17758 419.61017
423.0 0.002364 406.15894 418.12451
426.0 0.002347 406.14075 416.86859
413.0 0.002421 406.12302 415.82657
416.0 0.002404 406.10574 414.98062
394.0 0.002538 406.08893 414.31204
425.0 0.002353 406.07260 413.80356
440.0 0.002273 406.05676 413.43930
451.0 0.002217 406.04135 413.20660
439.0 0.002278 406.02640 413.09589
428.0 0.002336 406.01193 413.10168
452.0 0.002212 405.99792 413.22235
432.0 0.002315 405.98438 413.45868
437.0 0.002288 405.97128 413.81577
468.0 0.002137 405.95871 414.30045
442.0 0.002262 405.94656 414.91998
434.0 0.002304 405.93488 415.68332
406.0 0.002463 405.92368 416.59863
427.0 0.002342 405.91296 417.67178
431.0 0.002320 405.90268 418.90533
419.0 0.002387 405.89288 420.29761
446.0 0.002242 405.88354 421.84128
451.0 0.002217 405.87469 423.52222
430.0 0.002326 405.86630 425.31857
420.0 0.002381 405.85837 427.22372
422.0 0.002370 405.85092 429.14999
414.0 0.002415 405.84396 431.07507
437.0 0.002288 405.83743 432.92972
442.0 0.002262 405.83139 434.64737
449.0 0.002227 405.82581 436.15015
458.0 0.002183 405.82071 437.35779
441.0 0.002268 405.81607 438.19812
432.0 0.002315 405.81192 438.61664
442.0 0.002262 405.80823 438.58759
449.0 0.002227 405.80502 438.11975
433.0 0.002309 405.80228 437.25323
426.0 0.002347 405.79999 436.05313
434.0 0.002304 405.79816 434.59769
441.0 0.002268 405.79684 432.96771
442.0 0.002262 405.79596 431.23914
437.0 0.002288 405.79556 429.47934
438.0 0.002283 405.79565 427.74576
439.0 0.002278 405.79617 426.08499
427.0 0.002342 405.79718 424.53503
421.0 0.002375 405.79868 423.12280
419.0 0.002387 405.80063 421.86978
421.0 0.002375 405.80301 420.78992
424.0 0.002358 405.80591 419.89218
416.0 0.002404 405.80927 419.18115
403.0 0.002481 405.81308 418.65961
393.0 0.002545 405.81738 418.32941
439.0 0.002278 405.82214 418.19348
445.0 0.002247 405.82736 418.25815
431.0 0.002320 405.83304 418.53378
435.0 0.002299 405.83920 419.03720
432.0 0.002315 405.84583 419.79269
427.0 0.002342 405.85291 420.83295
430.0 0.002326 405.86047 422.20029
439.0 0.002278 405.86850 423.94409
447.0 0.002237 405.87698 426.12384
431.0 0.002320 405.88593 428.80545
416.0 0.002404 405.89532 432.05905
427.0 0.002342 405.90521 435.95615
436.0 0.002294 405.91553 440.56445
450.0 0.002222 405.92633 445.94504
427.0 0.002342 405.93759 452.14282
430.0 0.002326 405.94934 459.18430
443.0 0.002257 405.96152 467.06915
472.0 0.002119 405.97415 475.76520
444.0 0.002252 405.98724 485.20175
463.0 0.002160 406.00082 495.26544
491.0 0.002037 406.01483 505.79526
511.0 0.001957 406.02930 516.57446
490.0 0.002041 406.04422 527.33350
489.0 0.002045 406.05963 537.74396
543.0 0.001842 406.07547 547.41705
526.0 0.001901 406.09177 555.92438
543.0 0.001842 406.10852 562.81891
536.0 0.001866 406.12570 567.68335
549.0 0.001821 406.14337 570.18927
536.0 0.001866 406.16147 570.15741
496.0 0.002016 406.18002 567.59119
531.0 0.001883 406.19904 562.68011
510.0 0.001961 406.21851 555.75848
502.0 0.001992 406.23840 547.24646
500.0 0.002000 406.25873 537.59155
476.0 0.002101 406.27954 527.22211
492.0 0.002033 406.30078 516.52167
486.0 0.002058 406.32248 505.81720
453.0 0.002208 406.34457 495.37689
457.0 0.002188 406.36716 485.41354
453.0 0.002208 406.39017 476.08533
442.0 0.002262 406.41364 467.50531
452.0 0.002212 406.43750 459.74203
429.0 0.002331 406.46185 452.82742
428.0 0.002336 406.48660 446.76105
478.0 0.002092 406.51178 441.51715
421.0 0.002375 406.53741 437.05093
437.0 0.002288 406.56351 433.30383
444.0 0.002252 406.59000 430.21066
437.0 0.002288 406.61691 427.70364
406.0 0.002463 406.64429 425.71771
428.0 0.002336 406.67209 424.19308
425.0 0.002353 406.70029 423.07800
428.0 0.002336 406.72894 422.33051
417.0 0.002398 406.75800 421.91833
445.0 0.002247 406.78751 421.81955
426.0 0.002347 406.81741 422.02170
423.0 0.002364 406.84775 422.51932
429.0 0.002331 406.87851 423.31393
399.0 0.002506 406.90967 424.40976
424.0 0.002358 406.94125 425.81406
442.0 0.002262 406.97327 427.53128
435.0 0.002299 407.00568 429.56296
444.0 0.002252 407.03851 431.90366
422.0 0.002370 407.07175 434.53912
433.0 0.002309 407.10541 437.44360
448.0 0.002232 407.13950 440.57889
452.0 0.002212 407.17392 443.89047
431.0 0.002320 407.20880 447.30844
470.0 0.002128 407.24408 450.74411
446.0 0.002242 407.27975 454.09039
489.0 0.002045 407.31583 457.22153
473.0 0.002114 407.35233 459.99783
436.0 0.002294 407.38919 462.27161
453.0 0.002208 407.42645 463.90317
461.0 0.002169 407.46411 464.77881
453.0 0.002208 407.50220 464.83047
455.0 0.002198 407.54059 464.04947
477.0 0.002096 407.57944 462.48752
431.0 0.002320 407.61868 460.24710
456.0 0.002193 407.65829 457.46219
446.0 0.002242 407.69827 454.27826
456.0 0.002193 407.73865 450.83728
445.0 0.002247 407.77942 447.26791
444.0 0.002252 407.82053 443.68115
448.0 0.002232 407.86206 440.16840
413.0 0.002421 407.90393 436.80264
428.0 0.002336 407.94620 433.63989
417.0 0.002398 407.98880 430.71939
420.0 0.002381 408.03180 428.06647
418.0 0.002392 408.07516 425.69336
430.0 0.002326 408.11890 423.60059
404.0 0.002475 408.16296 421.78091
404.0 0.002475 408.20743 420.21884
422.0 0.002370 408.25226 418.89398
418.0 0.002392 408.29739 417.78336
423.0 0.002364 408.34293 416.86215
431.0 0.002320 408.38879 416.10471
432.0 0.002315 408.43506 415.48743
437.0 0.002288 408.48160 414.98807
416.0 0.002404 408.52853 414.58597
438.0 0.002283 408.57581 414.26404
437.0 0.002288 408.62338 414.00739
409.0 0.002445 408.67133 413.80475
435.0 0.002299 408.71964 413.64835
428.0 0.002336 408.76828 413.52020
403.0 0.002481 408.81720 413.41934
392.0 0.002551 408.86652 413.34045
405.0 0.002469 408.91614 413.28000
399.0 0.002506 408.96606 413.23492
429.0 0.002331 409.01633 413.20239
403.0 0.002481 409.06693 413.18130
392.0 0.002551 409.11786 413.16980
399.0 0.002506 409.16907 413.16736
434.0 0.002304 409.22061 413.17297
404.0 0.002475 409.27249 413.18600
394.0 0.002538 409.32468 413.20593
434.0 0.002304 409.37714 413.23276
426.0 0.002347 409.42993 413.26587
432.0 0.002315 409.48300 413.30545
408.0 0.002451 409.53638 413.35104
405.0 0.002469 409.59006 413.40292
418.0 0.002392 409.64407 413.46030
407.0 0.002457 409.69836 413.52429
411.0 0.002433 409.75290 413.59393
409.0 0.002445 409.80777 413.67007
404.0 0.002475 409.86295 413.75241
421.0 0.002375 409.91833 413.84106
431.0 0.002320 409.97403 413.93649
415.0 0.002410 410.03003 414.03909
429.0 0.002331 410.08633 414.14920
424.0 0.002358 410.14282 414.26712
413.0 0.002421 410.19965 414.39380
446.0 0.002242 410.25674 414.52982
426.0 0.002347 410.31406 414.67627
437.0 0.002288 410.37167 414.83456
419.0 0.002387 410.42953 415.00699
418.0 0.002392 410.48767 415.19492
411.0 0.002433 410.54602 415.40176
455.0 0.002198 410.60468 415.63159
411.0 0.002433 410.66354 415.88968
390.0 0.002564 410.72269 416.18250
426.0 0.002347 410.78204 416.51849
413.0 0.002421 410.84164 416.90793
424.0 0.002358 410.90149 417.36429
427.0 0.002342 410.96155 417.90305
417.0 0.002398 411.02188 418.54324
415.0 0.002410 411.08243 419.30658
424.0 0.002358 411.14322 420.21799
410.0 0.002439 411.20419 421.30545
415.0 0.002410 411.26541 422.59842
411.0 0.002433 411.32684 424.13760
412.0 0.002427 411.38846 425.93564
438.0 0.002283 411.45035 428.03088
416.0 0.002404 411.51242 430.44931
407.0 0.002457 411.57471 433.21063
437.0 0.002288 411.63715 436.32672
448.0 0.002232 411.69983 439.79825
459.0 0.002179 411.76273 443.61365
441.0 0.002268 411.82578 447.74536
447.0 0.002237 411.88904 452.14911
451.0 0.002217 411.95248 456.76071
449.0 0.002227 412.01614 461.49579
445.0 0.002247 412.07993 466.24689
443.0 0.002257 412.14392 470.88321
461.0 0.002169 412.20813 475.25076
470.0 0.002128 412.27246 479.17624
474.0 0.002110 412.33694 482.47629
476.0 0.002101 412.40164 484.97351
492.0 0.002033 412.46649 486.51929
490.0 0.002041 412.53146 487.01700
495.0 0.002020 412.59662 486.44247
473.0 0.002114 412.66196 484.84680
448.0 0.002232 412.72745 482.34723
469.0 0.002132 412.79300 479.10562
458.0 0.002183 412.85876 475.30539
452.0 0.002212 412.92468 471.12799
452.0 0.002212 412.99066 466.74234
448.0 0.002232 413.05685 462.29599
451.0 0.002217 413.12317 457.91284
438.0 0.002283 413.18961 453.69446
438.0 0.002283 413.25613 449.72021
455.0 0.002198 413.32281 446.04953
445.0 0.002247 413.38962 442.72446
401.0 0.002494 413.45648 439.77090
436.0 0.002294 413.52350 437.20197
437.0 0.002288 413.59064 435.01990
426.0 0.002347 413.65787 433.21902
405.0 0.002469 413.72516 431.78867
439.0 0.002278 413.79260 430.71683
410.0 0.002439 413.86014 429.99149
412.0 0.002427 413.92776 429.60397
416.0 0.002404 413.99542 429.55106
414.0 0.002415 414.06323 429.83673
427.0 0.002342 414.13110 430.47031
426.0 0.002347 414.19901 431.47110
427.0 0.002342 414.26703 432.86594
421.0 0.002375 414.33511 434.68793
419.0 0.002387 414.40329 436.97452
450.0 0.002222 414.47147 439.76642
431.0 0.002320 414.53976 443.10315
452.0 0.002212 414.60809 447.01947
461.0 0.002169 414.67642 451.54233
469.0 0.002132 414.74487 456.68555
447.0 0.002237 414.81339 462.44580
446.0 0.002242 414.88190 468.79919
453.0 0.002208 414.95044 475.69574
462.0 0.002165 415.01904 483.05777
467.0 0.002141 415.08768 490.77396
485.0 0.002062 415.15628 498.69919
500.0 0.002000 415.22498 506.65063
477.0 0.002096 415.29370 514.40979
486.0 0.002058 415.36243 521.70746
498.0 0.002008 415.43112 528.25494
510.0 0.001961 415.49988 533.74121
537.0 0.001862 415.56863 537.86591
532.0 0.001880 415.63739 540.37494
534.0 0.001873 415.70612 541.10126
512.0 0.001953 415.77487 539.99719
529.0 0.001890 415.84360 537.14240
502.0 0.001992 415.91229 532.72845
517.0 0.001934 415.98102 527.02539
504.0 0.001984 416.04974 520.33887
504.0 0.001984 416.11841 512.97699
452.0 0.002212 416.18701 505.22534
476.0 0.002101 416.25565 497.33511
450.0 0.002222 416.32425 489.51804
436.0 0.002294 416.39273 481.94699
469.0 0.002132 416.46124 474.75723
450.0 0.002222 416.52972 468.04974
431.0 0.002320 416.59814 461.89456
425.0 0.002353 416.66647 456.33246
434.0 0.002304 416.73477 451.38043
435.0 0.002299 416.80304 447.03415
427.0 0.002342 416.87119 443.27298
433.0 0.002309 416.93930 440.06357
431.0 0.002320 417.00735 437.36377
447.0 0.002237 417.07532 435.12717
414.0 0.002415 417.14319 433.30515
421.0 0.002375 417.21100 431.85095
440.0 0.002273 417.27875 430.72067
430.0 0.002326 417.34637 429.87537
424.0 0.002358 417.41388 429.28165
426.0 0.002347 417.48135 428.91254
421.0 0.002375 417.54868 428.74631
420.0 0.002381 417.61588 428.76703
430.0 0.002326 417.68304 428.96298
419.0 0.002387 417.75006 429.32590
420.0 0.002381 417.81699 429.84988
424.0 0.002358 417.88373 430.52979
432.0 0.002315 417.95041 431.36041
438.0 0.002283 418.01697 432.33472
441.0 0.002268 418.08331 433.44296
453.0 0.002208 418.14960 434.67209
428.0 0.002336 418.21573 436.00452
436.0 0.002294 418.28174 437.41608
436.0 0.002294 418.34756 438.87781
457.0 0.002188 418.41327 440.35342
441.0 0.002268 418.47882 441.79935
428.0 0.002336 418.54416 443.16513
438.0 0.002283 418.60941 444.39505
432.0 0.002315 418.67447 445.42960
447.0 0.002237 418.73938 446.21170
449.0 0.002227 418.80405 446.69293
440.0 0.002273 418.86862 446.84183
447.0 0.002237 418.93301 446.64914
418.0 0.002392 418.99719 446.12881
426.0 0.002347 419.06116 445.31702
450.0 0.002222 419.12497 444.26440
456.0 0.002193 419.18860 443.02832
438.0 0.002283 419.25195 441.66721
442.0 0.002262 419.31519 440.23569
436.0 0.002294 419.37820 438.78146
420.0 0.002381 419.44101 437.34573
442.0 0.002262 419.50357 435.96207
431.0 0.002320 419.56595 434.65710
443.0 0.002257 419.62811 433.45160
445.0 0.002247 419.68997 432.36060
427.0 0.002342 419.75168 431.39401
425.0 0.002353 419.81314 430.55795
414.0 0.002415 419.87439 429.85464
428.0 0.002336 419.93536 429.28445
439.0 0.002278 419.99609 428.84619
421.0 0.002375 420.05661 428.53812
429.0 0.002331 420.11682 428.35901
417.0 0.002398 420.17682 428.30878
434.0 0.002304 420.23657 428.38947
442.0 0.002262 420.29605 428.60580
450.0 0.002222 420.35522 428.96426
446.0 0.002242 420.41418 429.47543
422.0 0.002370 420.47287 430.15213
415.0 0.002410 420.53125 431.00882
440.0 0.002273 420.58936 432.06216
410.0 0.002439 420.64719 433.32932
426.0 0.002347 420.70471 434.82587
437.0 0.002288 420.76193 436.56622
472.0 0.002119 420.81891 438.55966
469.0 0.002132 420.87558 440.81113
462.0 0.002165 420.93195 443.31699
460.0 0.002174 420.98795 446.06598
425.0 0.002353 421.04370 449.03564
467.0 0.002141 421.09915 452.19177
440.0 0.002273 421.15421 455.48746
484.0 0.002066 421.20901 458.86081
474.0 0.002110 421.26352 462.23651
442.0 0.002262 421.31766 465.52927
469.0 0.002132 421.37143 468.61374
495.0 0.002020 421.42493 471.37878
489.0 0.002045 421.47809 473.69812
460.0 0.002174 421.53085 475.44965
466.0 0.002146 421.58331 476.53235
489.0 0.002045 421.63544 476.87866
498.0 0.002008 421.68719 476.47061
487.0 0.002053 421.73856 475.34061
490.0 0.002041 421.78961 473.56735
465.0 0.002151 421.84030 471.25986
473.0 0.002114 421.89063 468.54242
479.0 0.002088 421.94055 465.54129
461.0 0.002169 421.99014 462.37451
476.0 0.002101 422.03934 459.14572
465.0 0.002151 422.08810 455.94388
469.0 0.002132 422.13657 452.84186
465.0 0.002151 422.18463 449.89761
474.0 0.002110 422.23230 447.15588
472.0 0.002119 422.27954 444.64859
483.0 0.002070 422.32642 442.39658
482.0 0.002075 422.37289 440.41101
459.0 0.002179 422.41895 438.69589
478.0 0.002092 422.46460 437.24811
447.0 0.002237 422.50986 436.06113
481.0 0.002079 422.55472 435.12555
451.0 0.002217 422.59912 434.43192
484.0 0.002066 422.64313 433.97089
450.0 0.002222 422.68674 433.73593
480.0 0.002083 422.72986 433.72385
478.0 0.002092 422.77258 433.93512
478.0 0.002092 422.81488 434.37378
476.0 0.002101 422.85675 435.04898
490.0 0.002041 422.89816 435.97241
470.0 0.002128 422.93915 437.15866
463.0 0.002160 422.97971 438.62375
485.0 0.002062 423.01981 440.38239
451.0 0.002217 423.05942 442.44763
463.0 0.002160 423.09860 444.82782
471.0 0.002123 423.13733 447.52542
440.0 0.002273 423.17557 450.53876
461.0 0.002169 423.21338 453.84082
447.0 0.002237 423.25073 457.40698
504.0 0.001984 423.28760 461.19391
508.0 0.001969 423.32397 465.14261
487.0 0.002053 423.35992 469.17679
497.0 0.002012 423.39536 473.20221
474.0 0.002110 423.43030 477.10593
482.0 0.002075 423.46478 480.75726
483.0 0.002070 423.49878 484.01028
500.0 0.002000 423.53229 486.71353
517.0 0.001934 423.56528 488.72192
524.0 0.001908 423.59778 489.91531
488.0 0.002049 423.62982 490.21655
512.0 0.001953 423.66132 489.60632
481.0 0.002079 423.69232 488.12610
487.0 0.002053 423.72281 485.87024
481.0 0.002079 423.75281 482.97015
480.0 0.002083 423.78229 479.57526
484.0 0.002066 423.81125 475.83554
482.0 0.002075 423.83972 471.89148
468.0 0.002137 423.86765 467.86710
463.0 0.002160 423.89502 463.86850
458.0 0.002183 423.92191 459.98215
465.0 0.002151 423.94827 456.27704
467.0 0.002141 423.97406 452.80560
460.0 0.002174 423.99936 449.60477
467.0 0.002141 424.02411 446.69748
452.0 0.002212 424.04834 444.09515
447.0 0.002237 424.07199 441.79822
448.0 0.002232 424.09512 439.79904
460.0 0.002174 424.11771 438.08307
407.0 0.002457 424.13974 436.63159
443.0 0.002257 424.16122 435.42291
458.0 0.002183 424.18216 434.43427
461.0 0.002169 424.20255 433.64279
461.0 0.002169 424.22235 433.02789
433.0 0.002309 424.24161 432.57010
440.0 0.002273 424.26031 432.25327
445.0 0.002247 424.27844 432.06375
473.0 0.002114 424.29602 431.99060
473.0 0.002114 424.31302 432.02582
442.0 0.002262 424.32944 432.16339
445.0 0.002247 424.34528 432.39871
449.0 0.002227 424.36057 432.72858
433.0 0.002309 424.37527 433.14966
427.0 0.002342 424.38940 433.65842
433.0 0.002309 424.40295 434.25018
446.0 0.002242 424.41589 434.91861
424.0 0.002358 424.42825 435.65521
432.0 0.002315 424.44006 436.45059
455.0 0.002198 424.45126 437.28656
446.0 0.002242 424.46185 438.14709
462.0 0.002165 424.47186 439.01044
462.0 0.002165 424.48129 439.85132
454.0 0.002203 424.49011 440.64063
468.0 0.002137 424.49835 441.34589
460.0 0.002174 424.50595 441.93402
436.0 0.002294 424.51297 442.37399
434.0 0.002304 424.51938 442.63983
470.0 0.002128 424.52521 442.71609
444.0 0.002252 424.53040 442.59900
422.0 0.002370 424.53500 442.29916
435.0 0.002299 424.53900 441.83694
444.0 0.002252 424.54236 441.24228
445.0 0.002247 424.54510 440.54782
424.0 0.002358 424.54727 439.78644
427.0 0.002342 424.54880 438.98886
429.0 0.002331 424.54971 438.18292
429.0 0.002331 424.54999 437.39203
431.0 0.002320 424.54968 436.63635
443.0 0.002257 424.54871 435.93234
446.0 0.002242 424.54715 435.29376
434.0 0.002304 424.54495 434.72900
457.0 0.002188 424.54211 434.24664
450.0 0.002222 424.53867 433.85300
428.0 0.002336 424.53458 433.55228
428.0 0.002336 424.52988 433.34891
452.0 0.002212 424.52454 433.24716
461.0 0.002169 424.51859 433.25168
426.0 0.002347 424.51196 433.36911
435.0 0.002299 424.50473 433.60825
435.0 0.002299 424.49686 433.97989
459.0 0.002179 424.48834 434.49841
446.0 0.002242 424.47922 435.18039
427.0 0.002342 424.46942 436.04556
447.0 0.002237 424.45901 437.11658
437.0 0.002288 424.44797 438.41763
414.0 0.002415 424.43625 439.97241
428.0 0.002336 424.42392 441.80551
461.0 0.002169 424.41092 443.93774
451.0 0.002217 424.39731 446.38684
444.0 0.002252 424.38303 449.16354
460.0 0.002174 424.36813 452.27072
471.0 0.002123 424.35257 455.70074
462.0 0.002165 424.33636 459.43356
455.0 0.002198 424.31952 463.43555
475.0 0.002105 424.30206 467.65744
465.0 0.002151 424.28391 472.03293
503.0 0.001988 424.26511 476.47748
479.0 0.002088 424.24570 480.88757
486.0 0.002058 424.22562 485.13986
510.0 0.001961 424.20490 489.09366
511.0 0.001957 424.18350 492.59454
489.0 0.002045 424.16150 495.48389
496.0 0.002016 424.13882 497.61420
501.0 0.001996 424.11551 498.87033
509.0 0.001965 424.09155 499.17551
493.0 0.002028 424.06693 498.52359
497.0 0.002012 424.04166 496.96838
488.0 0.002049 424.01575 494.61612
487.0 0.002053 423.98920 491.60983
471.0 0.002123 423.96201 488.10831
500.0 0.002000 423.93414 484.27078
462.0 0.002165 423.90564 480.24619
460.0 0.002174 423.87646 476.16629
489.0 0.002045 423.84665 472.14532
445.0 0.002247 423.81619 468.27832
453.0 0.002208 423.78513 464.64322
432.0 0.002315 423.75336 461.30200
460.0 0.002174 423.72098 458.30310
459.0 0.002179 423.68793 455.68237
483.0 0.002070 423.65427 453.46631
477.0 0.002096 423.61990 451.67459
473.0 0.002114 423.58493 450.32358
443.0 0.002257 423.54932 449.42603
432.0 0.002315 423.51306 448.99869
457.0 0.002188 423.47614 449.06180
439.0 0.002278 423.43857 449.64304
448.0 0.002232 423.40039 450.76501
493.0 0.002028 423.36154 452.50027
454.0 0.002203 423.32208 454.89191
467.0 0.002141 423.28198 458.00543
487.0 0.002053 423.24121 461.91391
462.0 0.002165 423.19980 466.69623
489.0 0.002045 423.15778 472.43124
487.0 0.002053 423.11511 479.19510
454.0 0.002203 423.07181 487.05295
459.0 0.002179 423.02786 496.05380
495.0 0.002020 422.98334 506.22403
494.0 0.002024 422.93811 517.55920
509.0 0.001965 422.89227 530.02014
521.0 0.001919 422.84579 543.51807
533.0 0.001876 422.79874 557.92120
573.0 0.001745 422.75101 573.04041
553.0 0.001808 422.70267 588.62720
570.0 0.001754 422.65369 604.36890
588.0 0.001701 422.60413 619.88458
620.0 0.001613 422.55392 634.72473
633.0 0.001580 422.50305 648.37866
622.0 0.001608 422.45166 660.29199
648.0 0.001543 422.39957 669.90100
651.0 0.001536 422.34689 676.68878
660.0 0.001515 422.29358 680.25012
665.0 0.001504 422.23972 680.35577
646.0 0.001548 422.18518 676.99359
612.0 0.001634 422.13007 670.36969
598.0 0.001672 422.07434 660.87256
586.0 0.001706 422.01801 649.01031
580.0 0.001724 421.96106 635.34363
554.0 0.001805 421.90353 620.43005
512.0 0.001953 421.84543 604.78577
517.0 0.001934 421.78668 588.86694
490.0 0.002041 421.72736 573.06091
503.0 0.001988 421.66748 557.68787
492.0 0.002033 421.60693 543.00165
471.0 0.002123 421.54584 529.19672
466.0 0.002146 421.48413 516.41113
476.0 0.002101 421.42191 504.73273
455.0 0.002198 421.35907 494.20480
472.0 0.002119 421.29562 484.83237
486.0 0.002058 421.23160 476.58841
463.0 0.002160 421.16708 469.42261
452.0 0.002212 421.10193 463.26123
421.0 0.002375 421.03619 458.02362
428.0 0.002336 420.96994 453.62146
454.0 0.002203 420.90308 449.96527
460.0 0.002174 420.83566 446.96774
459.0 0.002179 420.76770 444.54810
436.0 0.002294 420.69922 442.63358
450.0 0.002222 420.63013 441.15900
405.0 0.002469 420.56052 440.07288
439.0 0.002278 420.49036 439.32220
440.0 0.002273 420.41965 438.87222
453.0 0.002208 420.34839 438.69034
429.0 0.002331 420.27658 438.75067
438.0 0.002283 420.20428 439.02985
428.0 0.002336 420.13144 439.50693
455.0 0.002198 420.05801 440.16116
439.0 0.002278 419.98416 440.97113
454.0 0.002203 419.90970 441.91290
431.0 0.002320 419.83472 442.95935
461.0 0.002169 419.75925 444.07925
470.0 0.002128 419.68332 445.23627
471.0 0.002123 419.60681 446.38794
466.0 0.002146 419.52979 447.48709
452.0 0.002212 419.45227 448.48019
453.0 0.002208 419.37433 449.31116
464.0 0.002155 419.29584 449.92328
450.0 0.002222 419.21680 450.26587
443.0 0.002257 419.13739 450.30060
464.0 0.002155 419.05740 450.00592
478.0 0.002092 418.97696 449.36041
453.0 0.002208 418.89603 448.43005
456.0 0.002193 418.81467 447.23169
462.0 0.002165 418.73282 445.81433
487.0 0.002053 418.65045 444.23267
493.0 0.002028 418.56772 442.54034
455.0 0.002198 418.48447 440.78656
437.0 0.002288 418.40073 439.01505
433.0 0.002309 418.31656 437.26266
426.0 0.002347 418.23203 435.56027
455.0 0.002198 418.14697 433.93134
419.0 0.002387 418.06149 432.39462
444.0 0.002252 417.97562 430.96289
430.0 0.002326 417.88925 429.64426
429.0 0.002331 417.80249 428.44241
427.0 0.002342 417.71527 427.35675
440.0 0.002273 417.62775 426.38480
433.0 0.002309 417.53970 425.52048
400.0 0.002500 417.45129 424.75598
417.0 0.002398 417.36243 424.08319
438.0 0.002283 417.27328 423.49222
444.0 0.002252 417.18365 422.97342
436.0 0.002294 417.09360 422.51779
444.0 0.002252 417.00327 422.11627
437.0 0.002288 416.91248 421.76099
411.0 0.002433 416.82132 421.44415
405.0 0.002469 416.72980 421.15955
418.0 0.002392 416.63797 420.90176
439.0 0.002278 416.54572 420.66583
420.0 0.002381 416.45309 420.44836
444.0 0.002252 416.36017 420.25394
440.0 0.002273 416.26685 420.06393
435.0 0.002299 416.17319 419.88406
398.0 0.002513 416.07919 419.71323
407.0 0.002457 415.98495 419.54984
411.0 0.002433 415.89029 419.39291
449.0 0.002227 415.79532 419.24167
446.0 0.002242 415.70010 419.09576
419.0 0.002387 415.60449 418.95441
438.0 0.002283 415.50858 418.82138
410.0 0.002439 415.41235 418.68866
416.0 0.002404 415.31592 418.55960
414.0 0.002415 415.21912 418.43436
419.0 0.002387 415.12204 418.31281
425.0 0.002353 415.02466 418.19473
432.0 0.002315 414.92709 418.08026
430.0 0.002326 414.82919 417.96915
433.0 0.002309 414.73102 417.86166
436.0 0.002294 414.63266 417.75766
415.0 0.002410 414.53397 417.65759
423.0 0.002364 414.43506 417.56143
423.0 0.002364 414.33588 417.46893
409.0 0.002445 414.23654 417.38101
420.0 0.002381 414.13690 417.29755
419.0 0.002387 414.03705 417.21887
422.0 0.002370 413.93701 417.14594
418.0 0.002392 413.83673 417.07913
428.0 0.002336 413.73624 417.01971
419.0 0.002387 413.63553 416.95999
408.0 0.002451 413.53470 416.92175
419.0 0.002387 413.43359 416.89255
430.0 0.002326 413.33234 416.87836
425.0 0.002353 413.23096 416.88150
435.0 0.002299 413.12933 416.90640
423.0 0.002364 413.02753 416.95850
414.0 0.002415 412.92557 417.04300
411.0 0.002433 412.82355 417.16711
422.0 0.002370 412.72131 417.33920
394.0 0.002538 412.61890 417.56857
425.0 0.002353 412.51639 417.86609
424.0 0.002358 412.41379 418.24326
419.0 0.002387 412.31100 418.71216
421.0 0.002375 412.20810 419.28595
414.0 0.002415 412.10516 419.97726
437.0 0.002288 412.00204 420.79825
458.0 0.002183 411.89883 421.75967
422.0 0.002370 411.79553 422.87000
438.0 0.002283 411.69220 424.13510
409.0 0.002445 411.58875 425.55792
432.0 0.002315 411.48520 427.13275
402.0 0.002488 411.38165 428.85229
420.0 0.002381 411.27795 430.70190
437.0 0.002288 411.17426 432.66019
440.0 0.002273 411.07047 434.69699
419.0 0.002387 410.96674 436.77524
446.0 0.002242 410.86288 438.84879
441.0 0.002268 410.75900 440.86212
431.0 0.002320 410.65518 442.75266
434.0 0.002304 410.55127 444.44913
428.0 0.002336 410.44733 445.87808
443.0 0.002257 410.34341 446.96634
438.0 0.002283 410.23956 447.65280
454.0 0.002203 410.13568 447.89215
452.0 0.002212 410.03177 447.66534
444.0 0.002252 409.92792 446.98236
451.0 0.002217 409.82416 445.88004
447.0 0.002237 409.72037 444.41531
437.0 0.002288 409.61661 442.65915
433.0 0.002309 409.51300 440.68597
444.0 0.002252 409.40936 438.56845
413.0 0.002421 409.30579 436.37341
436.0 0.002294 409.20227 434.15933
451.0 0.002217 409.09894 431.97672
422.0 0.002370 408.99561 429.86691
450.0 0.002222 408.89236 427.86322
430.0 0.002326 408.78928 425.99240
418.0 0.002392 408.68625 424.27341
428.0 0.002336 408.58334 422.71960
413.0 0.002421 408.48053 421.33957
421.0 0.002375 408.37793 420.13739
431.0 0.002320 408.27539 419.11401
440.0 0.002273 408.17300 418.26828
426.0 0.002347 408.07083 417.59787
428.0 0.002336 407.96872 417.10016
423.0 0.002364 407.86679 416.77353
414.0 0.002415 407.76501 416.61652
412.0 0.002427 407.66351 416.63062
419.0 0.002387 407.56210 416.81787
443.0 0.002257 407.46091 417.18280
430.0 0.002326 407.35986 417.73120
410.0 0.002439 407.25916 418.47177
432.0 0.002315 407.15854 419.40720
427.0 0.002342 407.05814 420.54581
432.0 0.002315 406.95807 421.89206
422.0 0.002370 406.85812 423.44666
417.0 0.002398 406.75845 425.20697
410.0 0.002439 406.65900 427.16531
439.0 0.002278 406.55988 429.30652
450.0 0.002222 406.46097 431.60965
460.0 0.002174 406.36227 434.04431
420.0 0.002381 406.26398 436.57156
443.0 0.002257 406.16586 439.14297
426.0 0.002347 406.06802 441.69952
440.0 0.002273 405.97052 444.17307
442.0 0.002262 405.87335 446.48148
450.0 0.002222 405.77646 448.53870
458.0 0.002183 405.67984 450.25443
433.0 0.002309 405.58365 451.54196
470.0 0.002128 405.48770 452.32758
436.0 0.002294 405.39209 452.56189
442.0 0.002262 405.29684 452.22620
447.0 0.002237 405.20200 451.33722
453.0 0.002208 405.10745 449.94339
431.0 0.002320 405.01328 448.11688
450.0 0.002222 404.91943 445.94492
445.0 0.002247 404.82608 443.51822
428.0 0.002336 404.73303 440.92468
425.0 0.002353 404.64035 438.24500
433.0 0.002309 404.54819 435.55017
442.0 0.002262 404.45633 432.90033
433.0 0.002309 404.36490 430.34634
406.0 0.002463 404.27390 427.92911
430.0 0.002326 404.18338 425.68057
426.0 0.002347 404.09323 423.62842
456.0 0.002193 404.00351 421.78378
420.0 0.002381 403.91431 420.16150
416.0 0.002404 403.82550 418.76871
400.0 0.002500 403.73715 417.60922
403.0 0.002481 403.64929 416.68457
413.0 0.002421 403.56195 415.99551
405.0 0.002469 403.47504 415.54227
417.0 0.002398 403.38861 415.32727
437.0 0.002288 403.30276 415.35391
426.0 0.002347 403.21732 415.62775
435.0 0.002299 403.13239 416.15695
413.0 0.002421 403.04797 416.95142
447.0 0.002237 402.96417 418.02344
409.0 0.002445 402.88083 419.38412
426.0 0.002347 402.79800 421.04526
417.0 0.002398 402.71573 423.01645
404.0 0.002475 402.63409 425.30368
422.0 0.002370 402.55292 427.90756
406.0 0.002463 402.47229 430.82187
414.0 0.002415 402.39233 434.03494
414.0 0.002415 402.31287 437.51599
450.0 0.002222 402.23398 441.23178
453.0 0.002208 402.15570 445.13333
426.0 0.002347 402.07806 449.15762
474.0 0.002110 402.00095 453.22672
458.0 0.002183 401.92447 457.25443
445.0 0.002247 401.84863 461.11572
457.0 0.002188 401.77338 464.69360
472.0 0.002119 401.69876 467.85239
496.0 0.002016 401.62476 470.45319
466.0 0.002146 401.55145 472.36475
492.0 0.002033 401.47873 473.47919
446.0 0.002242 401.40668 473.72647
441.0 0.002268 401.33533 473.08551
463.0 0.002160 401.26456 471.58856
445.0 0.002247 401.19446 469.31464
458.0 0.002183 401.12506 466.37802
451.0 0.002217 401.05640 462.91248
441.0 0.002268 400.98837 459.05670
426.0 0.002347 400.92102 454.94406
440.0 0.002273 400.85437 450.69553
428.0 0.002336 400.78845 446.41693
428.0 0.002336 400.72324 442.19824
430.0 0.002326 400.65869 438.11273
427.0 0.002342 400.59494 434.21951
423.0 0.002364 400.53186 430.56299
421.0 0.002375 400.46951 427.17517
430.0 0.002326 400.40790 424.07608
421.0 0.002375 400.34708 421.27585
417.0 0.002398 400.28699 418.77542
414.0 0.002415 400.22760 416.56851
415.0 0.002410 400.16904 414.64288
420.0 0.002381 400.11118 412.98288
421.0 0.002375 400.05411 411.56879
400.0 0.002500 399.99780 410.38034
428.0 0.002336 399.94232 409.39682
412.0 0.002427 399.88757 408.59760
435.0 0.002299 399.83362 407.96420
416.0 0.002404 399.78052 407.47839
421.0 0.002375 399.72815 407.12540
399.0 0.002506 399.67657 406.89151
402.0 0.002488 399.62582 406.76514
440.0 0.002273 399.57593 406.73618
412.0 0.002427 399.52682 406.79559
430.0 0.002326 399.47852 406.93546
405.0 0.002469 399.43106 407.14804
400.0 0.002500 399.38446 407.42603
413.0 0.002421 399.33865 407.76077
403.0 0.002481 399.29367 408.14395
399.0 0.002506 399.24957 408.56558
412.0 0.002427 399.20630 409.01425
431.0 0.002320 399.16388 409.47687
414.0 0.002415 399.12231 409.93878
431.0 0.002320 399.08163 410.38498
438.0 0.002283 399.04181 410.79266
384.0 0.002604 399.00284 411.14438
405.0 0.002469 398.96475 411.41968
411.0 0.002433 398.92749 411.60065
423.0 0.002364 398.89114 411.67209
386.0 0.002591 398.85568 411.62521
412.0 0.002427 398.82114 411.45764
404.0 0.002475 398.78745 411.17456
412.0 0.002427 398.75464 410.78818
411.0 0.002433 398.72278 410.31461
422.0 0.002370 398.69177 409.77286
413.0 0.002421 398.66165 409.18268
402.0 0.002488 398.63248 408.56256
402.0 0.002488 398.60422 407.92975
407.0 0.002457 398.57681 407.29901
377.0 0.002653 398.55038 406.68347
394.0 0.002538 398.52481 406.09378
411.0 0.002433 398.50024 405.53903
415.0 0.002410 398.47653 405.02615
442.0 0.002262 398.45374 404.56277
428.0 0.002336 398.43192 404.15015
436.0 0.002294 398.41098 403.79333
430.0 0.002326 398.39099 403.49503
423.0 0.002364 398.37195 403.25766
428.0 0.002336 398.35385 403.08313
406.0 0.002463 398.33667 402.97354
408.0 0.002451 398.32043 402.93152
416.0 0.002404 398.30511 402.96005
423.0 0.002364 398.29077 403.06195
401.0 0.002494 398.27737 403.24222
411.0 0.002433 398.26492 403.50500
416.0 0.002404 398.25342 403.85550
399.0 0.002506 398.24286 404.29898
397.0 0.002519 398.23325 404.84003
406.0 0.002463 398.22458 405.48367
403.0 0.002481 398.21689 406.23318
411.0 0.002433 398.21011 407.08987
386.0 0.002591 398.20435 408.05380
386.0 0.002591 398.19949 409.12155
421.0 0.002375 398.19562 410.28751
428.0 0.002336 398.19269 411.54129
409.0 0.002445 398.19073 412.86957
397.0 0.002519 398.18973 414.25360
410.0 0.002439 398.18970 415.67026
428.0 0.002336 398.19058 417.09158
429.0 0.002331 398.19247 418.48367
419.0 0.002387 398.19531 419.81018
445.0 0.002247 398.19910 421.02295
432.0 0.002315 398.20386 422.07849
452.0 0.002212 398.20956 422.93027
432.0 0.002315 398.21625 423.53647
459.0 0.002179 398.22388 423.86392
412.0 0.002427 398.23245 423.89368
415.0 0.002410 398.24200 423.62366
422.0 0.002370 398.25250 423.06870
424.0 0.002358 398.26398 422.25885
425.0 0.002353 398.27637 421.23438
426.0 0.002347 398.28976 420.04059
443.0 0.002257 398.30408 418.72412
418.0 0.002392 398.31934 417.32895
421.0 0.002375 398.33557 415.89435
426.0 0.002347 398.35275 414.45569
396.0 0.002525 398.37085 413.04175
396.0 0.002525 398.38992 411.67670
415.0 0.002410 398.40994 410.37988
400.0 0.002500 398.43091 409.16501
402.0 0.002488 398.45279 408.04236
412.0 0.002427 398.47562 407.01862
407.0 0.002457 398.49939 406.09607
418.0 0.002392 398.52408 405.27478
421.0 0.002375 398.54971 404.55170
409.0 0.002445 398.57626 403.92221
401.0 0.002494 398.60376 403.37973
437.0 0.002288 398.63217 402.91745
405.0 0.002469 398.66150 402.52737
413.0 0.002421 398.69174 402.20135
441.0 0.002268 398.72290 401.93167
410.0 0.002439 398.75494 401.71082
417.0 0.002398 398.78793 401.53192
410.0 0.002439 398.82184 401.38831
411.0 0.002433 398.85663 401.27466
427.0 0.002342 398.89227 401.18555
402.0 0.002488 398.92886 401.11746
431.0 0.002320 398.96634 401.06644
411.0 0.002433 399.00467 401.03003
395.0 0.002532 399.04388 401.00739
390.0 0.002564 399.08401 400.99258
416.0 0.002404 399.12500 400.98599
414.0 0.002415 399.16681 400.98669
408.0 0.002451 399.20953 400.99359
389.0 0.002571 399.25314 401.00568
411.0 0.002433 399.29758 401.02280
396.0 0.002525 399.34280 401.04431
413.0 0.002421 399.38892 401.06964
409.0 0.002445 399.43588 401.09897
400.0 0.002500 399.48367 401.13193
412.0 0.002427 399.53229 401.16797
397.0 0.002519 399.58173 401.20749
417.0 0.002398 399.63202 401.25043
419.0 0.002387 399.68304 401.29617
399.0 0.002506 399.73495 401.34537
385.0 0.002597 399.78763 401.39746
389.0 0.002571 399.84106 401.45300
421.0 0.002375 399.89532 401.51166
396.0 0.002525 399.95038 401.57376
404.0 0.002475 400.00620 401.63956
403.0 0.002481 400.06274 401.70901
399.0 0.002506 400.12009 401.78256
389.0 0.002571 400.17819 401.86087
393.0 0.002545 400.23700 401.94388
397.0 0.002519 400.29660 402.03275
401.0 0.002494 400.35693 402.12830
416.0 0.002404 400.41797 402.23123
383.0 0.002611 400.47971 402.34332
385.0 0.002597 400.54221 402.46643
415.0 0.002410 400.60538 402.60217
425.0 0.002353 400.66928 402.75333
410.0 0.002439 400.73380 402.92316
403.0 0.002481 400.79904 403.11493
395.0 0.002532 400.86496 403.33279
395.0 0.002532 400.93152 403.58127
422.0 0.002370 400.99875 403.86603
424.0 0.002358 401.06665 404.19247
399.0 0.002506 401.13519 404.56659
423.0 0.002364 401.20428 404.99448
397.0 0.002519 401.27408 405.48267
414.0 0.002415 401.34448 406.03693
411.0 0.002433 401.41541 406.66281
409.0 0.002445 401.48700 407.36438
408.0 0.002451 401.55917 408.14545
401.0 0.002494 401.63196 409.00739
399.0 0.002506 401.70523 409.94937
407.0 0.002457 401.77911 410.96881
397.0 0.002519 401.85355 412.06042
420.0 0.002381 401.92844 413.21506
396.0 0.002525 402.00394 414.42105
405.0 0.002469 402.07996 415.66275
408.0 0.002451 402.15646 416.92004
408.0 0.002451 402.23346 418.16992
411.0 0.002433 402.31094 419.38416
409.0 0.002445 402.38895 420.53119
416.0 0.002404 402.46741 421.57574
412.0 0.002427 402.54626 422.48126
423.0 0.002364 402.62561 423.21249
410.0 0.002439 402.70541 423.73752
415.0 0.002410 402.78558 424.03275
450.0 0.002222 402.86621 424.08691
399.0 0.002506 402.94724 423.90131
408.0 0.002451 403.02869 423.49103
421.0 0.002375 403.11044 422.88123
425.0 0.002353 403.19263 422.10477
395.0 0.002532 403.27515 421.19846
409.0 0.002445 403.35797 420.19803
418.0 0.002392 403.44119 419.13831
415.0 0.002410 403.52475 418.05017
436.0 0.002294 403.60861 416.96036
389.0 0.002571 403.69272 415.89182
402.0 0.002488 403.77716 414.86285
384.0 0.002604 403.86188 413.88919
400.0 0.002500 403.94681 412.98138
391.0 0.002558 404.03204 412.14807
402.0 0.002488 404.11752 411.39401
407.0 0.002457 404.20325 410.72211
404.0 0.002475 404.28912 410.13257
420.0 0.002381 404.37524 409.62405
416.0 0.002404 404.46158 409.19373
395.0 0.002532 404.54807 408.83704
415.0 0.002410 404.63467 408.54950
396.0 0.002525 404.72150 408.32632
394.0 0.002538 404.80847 408.16162
411.0 0.002433 404.89551 408.05078
419.0 0.002387 404.98270 407.98862
414.0 0.002415 405.07001 407.97089
425.0 0.002353 405.15744 407.99380
414.0 0.002415 405.24484 408.05362
421.0 0.002375 405.33240 408.14713
397.0 0.002519 405.41998 408.27158
396.0 0.002525 405.50754 408.42465
393.0 0.002545 405.59521 408.60373
401.0 0.002494 405.68286 408.80597
415.0 0.002410 405.77054 409.02917
401.0 0.002494 405.85815 409.27011
405.0 0.002469 405.94577 409.52557
436.0 0.002294 406.03336 409.79218
416.0 0.002404 406.12082 410.06531
408.0 0.002451 406.20828 410.34012
422.0 0.002370 406.29565 410.61163
408.0 0.002451 406.38297 410.87341
412.0 0.002427 406.47006 411.11942
416.0 0.002404 406.55713 411.34305
407.0 0.002457 406.64407 411.53769
447.0 0.002237 406.73083 411.69812
420.0 0.002381 406.81741 411.82004
412.0 0.002427 406.90384 411.90204
415.0 0.002410 406.99011 411.94443
408.0 0.002451 407.07608 411.95023
408.0 0.002451 407.16193 411.92361
374.0 0.002674 407.24753 411.87091
391.0 0.002558 407.33292 411.79883
406.0 0.002463 407.41797 411.71335
389.0 0.002571 407.50281 411.62125
411.0 0.002433 407.58737 411.52814
426.0 0.002347 407.67157 411.43951
409.0 0.002445 407.75555 411.35944
429.0 0.002331 407.83917 411.29251
422.0 0.002370 407.92252 411.24213
400.0 0.002500 408.00540 411.21161
405.0 0.002469 408.08801 411.20413
414.0 0.002415 408.17023 411.22217
391.0 0.002558 408.25201 411.26889
394.0 0.002538 408.33347 411.34729
406.0 0.002463 408.41449 411.45993
409.0 0.002445 408.49509 411.61078
418.0 0.002392 408.57520 411.80368
412.0 0.002427 408.65491 412.04245
412.0 0.002427 408.73416 412.33261
433.0 0.002309 408.81296 412.67892
394.0 0.002538 408.89117 413.08691
404.0 0.002475 408.96896 413.56320
389.0 0.002571 409.04623 414.11261
410.0 0.002439 409.12296 414.74121
415.0 0.002410 409.19919 415.45380
419.0 0.002387 409.27484 416.25412
418.0 0.002392 409.34998 417.14481
401.0 0.002494 409.42444 418.12585
398.0 0.002513 409.49841 419.19608
393.0 0.002545 409.57178 420.35077
434.0 0.002304 409.64447 421.58237
415.0 0.002410 409.71661 422.90384
417.0 0.002398 409.78812 424.25339
411.0 0.002433 409.85901 425.63593
420.0 0.002381 409.92917 427.02869
445.0 0.002247 409.99875 428.40417
419.0 0.002387 410.06766 429.73102
421.0 0.002375 410.13580 430.97992
447.0 0.002237 410.20334 432.09918
420.0 0.002381 410.27017 433.05542
433.0 0.002309 410.33627 433.81055
428.0 0.002336 410.40164 434.33176
446.0 0.002242 410.46631 434.59592
414.0 0.002415 410.53024 434.59341
426.0 0.002347 410.59344 434.32785
436.0 0.002294 410.65585 433.81799
445.0 0.002247 410.71750 433.09317
438.0 0.002283 410.77841 432.18939
408.0 0.002451 410.83850 431.14700
430.0 0.002326 410.89783 430.00534
414.0 0.002415 410.95639 428.80200
409.0 0.002445 411.01413 427.57016
408.0 0.002451 411.07104 426.33939
412.0 0.002427 411.12717 425.13452
426.0 0.002347 411.18250 423.97678
433.0 0.002309 411.23691 422.88239
416.0 0.002404 411.29056 421.86493
420.0 0.002381 411.34338 420.93356
432.0 0.002315 411.39536 420.09531
402.0 0.002488 411.44644 419.35468
460.0 0.002174 411.49673 418.71326
416.0 0.002404 411.54614 418.17087
426.0 0.002347 411.59467 417.72687
415.0 0.002410 411.64236 417.37888
419.0 0.002387 411.68921 417.12445
437.0 0.002288 411.73517 416.96082
429.0 0.002331 411.78024 416.88501
420.0 0.002381 411.82446 416.89493
388.0 0.002577 411.86783 416.98788
429.0 0.002331 411.91031 417.16251
417.0 0.002398 411.95187 417.41705
411.0 0.002433 411.99261 417.75015
402.0 0.002488 412.03244 418.15994
404.0 0.002475 412.07141 418.64471
434.0 0.002304 412.10953 419.20120
429.0 0.002331 412.14676 419.82599
421.0 0.002375 412.18311 420.51361
420.0 0.002381 412.21860 421.25739
404.0 0.002475 412.25320 422.05075
414.0 0.002415 412.28699 422.87930
435.0 0.002299 412.31985 423.73135
431.0 0.002320 412.35193 424.59167
405.0 0.002469 412.38315 425.44177
405.0 0.002469 412.41351 426.26102
418.0 0.002392 412.44302 427.02588
431.0 0.002320 412.47171 427.71155
430.0 0.002326 412.49960 428.29236
453.0 0.002208 412.52664 428.74414
437.0 0.002288 412.55289 429.04608
424.0 0.002358 412.57834 429.18423
448.0 0.002232 412.60303 429.15247
421.0 0.002375 412.62689 428.95435
428.0 0.002336 412.65002 428.60138
435.0 0.002299 412.67239 428.11285
418.0 0.002392 412.69400 427.51163
448.0 0.002232 412.71487 426.82367
419.0 0.002387 412.73505 426.07376
431.0 0.002320 412.75449 425.28580
422.0 0.002370 412.77325 424.48123
433.0 0.002309 412.79135 423.67911
430.0 0.002326 412.80881 422.89542
426.0 0.002347 412.82559 422.14362
433.0 0.002309 412.84177 421.43442
401.0 0.002494 412.85733 420.77704
435.0 0.002299 412.87231 420.17770
416.0 0.002404 412.88672 419.64114
434.0 0.002304 412.90057 419.17029
419.0 0.002387 412.91391 418.76721
430.0 0.002326 412.92676 418.43228
436.0 0.002294 412.93912 418.16568
418.0 0.002392 412.95102 417.96637
424.0 0.002358 412.96249 417.83371
443.0 0.002257 412.97354 417.76620
419.0 0.002387 412.98425 417.76343
418.0 0.002392 412.99460 417.82425
428.0 0.002336 413.00461 417.94806
420.0 0.002381 413.01434 418.13434
440.0 0.002273 413.02380 418.38269
428.0 0.002336 413.03305 418.69272
431.0 0.002320 413.04208 419.06311
424.0 0.002358 413.05096 419.49332
422.0 0.002370 413.05969 419.98074
438.0 0.002283 413.06833 420.52286
453.0 0.002208 413.07693 421.11578
421.0 0.002375 413.08548 421.75394
446.0 0.002242 413.09409 422.43051
419.0 0.002387 413.10269 423.13678
421.0 0.002375 413.11145 423.86221
426.0 0.002347 413.12030 424.59448
432.0 0.002315 413.12936 425.31857
432.0 0.002315 413.13864 426.01813
449.0 0.002227 413.14819 426.67401
454.0 0.002203 413.15805 427.26816
453.0 0.002208 413.16830 427.77667
438.0 0.002283 413.17896 428.18207
432.0 0.002315 413.19006 428.46848
395.0 0.002532 413.20169 428.62466
416.0 0.002404 413.21387 428.64673
411.0 0.002433 413.22668 428.53802
422.0 0.002370 413.24017 428.30862
421.0 0.002375 413.25443 427.97464
432.0 0.002315 413.26944 427.55539
454.0 0.002203 413.28531 427.07242
429.0 0.002331 413.30209 426.54709
433.0 0.002309 413.31985 425.99954
422.0 0.002370 413.33865 425.44901
424.0 0.002358 413.35855 424.91269
416.0 0.002404 413.37961 424.40591
415.0 0.002410 413.40189 423.94281
427.0 0.002342 413.42551 423.53598
435.0 0.002299 413.45050 423.19678
444.0 0.002252 413.47696 422.93631
447.0 0.002237 413.50491 422.76483
439.0 0.002278 413.53445 422.69278
466.0 0.002146 413.56570 422.73114
415.0 0.002410 413.59869 422.89029
435.0 0.002299 413.63351 423.18256
423.0 0.002364 413.67026 423.62033
431.0 0.002320 413.70901 424.21793
441.0 0.002268 413.74985 424.98941
423.0 0.002364 413.79288 425.95084
410.0 0.002439 413.83817 427.11804
441.0 0.002268 413.88574 428.50674
434.0 0.002304 413.93585 430.13239
453.0 0.002208 413.98849 432.00839
445.0 0.002247 414.04376 434.14624
422.0 0.002370 414.10175 436.55347
454.0 0.002203 414.16260 439.23340
449.0 0.002227 414.22638 442.18323
450.0 0.002222 414.29324 445.39359
458.0 0.002183 414.36316 448.84753
426.0 0.002347 414.43643 452.51950
452.0 0.002212 414.51303 456.37363
450.0 0.002222 414.59308 460.36435
458.0 0.002183 414.67679 464.43445
438.0 0.002283 414.76419 468.51505
477.0 0.002096 414.85544 472.52481
487.0 0.002053 414.95056 476.37021
464.0 0.002155 415.04987 479.94763
487.0 0.002053 415.15332 483.14499
483.0 0.002070 415.26105 485.84924
464.0 0.002155 415.37329 487.95374
492.0 0.002033 415.49014 489.36954
480.0 0.002083 415.61172 490.03564
509.0 0.001965 415.73804 489.92841
465.0 0.002151 415.86948 489.06442
495.0 0.002020 416.00604 487.49802
492.0 0.002033 416.14780 485.31454
452.0 0.002212 416.29507 482.61957
477.0 0.002096 416.44794 479.52673
448.0 0.002232 416.60657 476.15088
468.0 0.002137 416.77090 472.59927
452.0 0.002212 416.94144 468.97095
459.0 0.002179 417.11816 465.35208
424.0 0.002358 417.30127 461.81802
448.0 0.002232 417.49072 458.43228
447.0 0.002237 417.68704 455.24802
443.0 0.002257 417.89020 452.30881
435.0 0.002299 418.10025 449.64972
437.0 0.002288 418.31769 447.29813
423.0 0.002364 418.54251 445.27484
470.0 0.002128 418.77490 443.59509
461.0 0.002169 419.01486 442.27017
447.0 0.002237 419.26297 441.30801
427.0 0.002342 419.51920 440.71466
436.0 0.002294 419.78354 440.49466
466.0 0.002146 420.05661 440.65280
445.0 0.002247 420.33841 441.19287
464.0 0.002155 420.62912 442.11917
461.0 0.002169 420.92877 443.43604
441.0 0.002268 421.23795 445.14755
445.0 0.002247 421.55670 447.25674
454.0 0.002203 421.88495 449.76404
454.0 0.002203 422.22345 452.66794
457.0 0.002188 422.57214 455.96127
467.0 0.002141 422.93127 459.63199
441.0 0.002268 423.30081 463.66022
477.0 0.002096 423.68149 468.01859
464.0 0.002155 424.07330 472.66946
453.0 0.002208 424.47650 477.56464
469.0 0.002132 424.89096 482.64374
479.0 0.002088 425.31760 487.83408
489.0 0.002045 425.75638 493.04889
526.0 0.001901 426.20712 498.18631
529.0 0.001890 426.67087 503.13184
527.0 0.001898 427.14746 507.75668
526.0 . . .
535.0 . . .
_pd_meas_number_of_points        8900
_pd_proc_number_of_points        8900

loop_
_refln_index_h
_refln_index_k
_refln_index_l
_refln_observed_status
_refln_F_squared_meas
_refln_F_squared_calc
_refln_phase_calc
_refln_d_spacing
_gsas_i100_meas
1 1 0 o 169163.09 171167.45 180.00 12.04708 100.00
2 0 0 o 121850.05 119082.28 0.00 8.51857 18.10
2 1 1 o 46894.33 46256.36 -3.89 6.95539 17.64
2 2 0 o 10583.587 10553.447 180.00 6.02354 1.36
3 1 0 o 15863.646 15141.891 180.00 5.38762 3.45
2 2 2 o 130095.78 125096.00 173.48 4.91820 7.84
3 2 1 o 1288.270 1706.052 19.56 4.55337 0.29
4 0 0 o -837.219 1209.979 180.00 4.25929 0.05
4 1 1 o 19007.342 18872.246 -69.21 4.01569 2.65
3 3 0 o 4813.010 4692.994 0.00 4.01569 0.38
3 3 2 o 37668.98 35055.320 -17.12 3.63233 3.89
4 2 0 o 367.961 311.495 0.00 3.80962 0.02
4 2 2 o 58403.28 55553.36 117.11 3.47769 5.89
4 3 1 o 36487.75 35523.55 -144.87 3.34126 6.43
5 1 0 o 203.254 201.930 180.00 3.34126 0.00
5 2 1 o 7593.219 8358.996 26.33 3.11054 1.08
4 3 3 o 43599.36 41601.53 -145.68 2.92185 2.95
4 4 0 o 124489.23 116026.62 0.00 3.01177 4.26
4 4 2 o 70830.10 67321.41 56.56 2.83952 4.71
5 3 0 o 3411.206 3265.040 -180.00 2.92185 0.20
5 3 2 o 16429.420 16246.498 -18.74 2.76379 1.89
6 1 1 o 16754.887 16575.217 -5.17 2.76379 0.98
6 0 0 o 15691.437 14755.432 -180.00 2.83952 0.31
5 4 1 o 9341.165 9335.799 173.11 2.62889 0.95
6 2 0 o 24608.877 24496.070 -180.00 2.69381 1.41
6 2 2 o 84250.93 80753.77 -162.89 2.56845 4.11
4 4 4 o 129767.84 119658.52 34.00 2.45910 1.99
6 3 1 o 2927.172 3264.950 4.61 2.51199 0.24
5 4 3 o 5445.785 5016.607 -146.05 2.40942 0.46
6 3 3 o 7120.721 6888.409 76.79 2.31846 0.31
5 5 0 o 22553.154 20659.027 -180.00 2.40942 0.51
5 5 2 o 759.986 726.038 -131.37 2.31846 0.05
7 1 0 o 3243.180 3014.140 -180.00 2.40942 0.12
6 4 0 o 21608.738 22651.436 0.00 2.36263 0.96
7 2 1 o 11152.969 10814.150 17.75 2.31846 0.90
6 4 2 o 3279.175 3542.886 -113.13 2.27668 0.26
5 5 4 o 11821.571 11265.828 -163.66 2.09713 0.38
7 3 0 o 2876.681 3558.890 -180.00 2.23709 0.09
7 3 2 o 8968.079 8596.400 28.75 2.16372 0.63
6 4 4 o 604.667 585.687 -11.92 2.06606 0.01
6 5 1 o 3090.045 2980.425 -17.17 2.16372 0.19
6 5 3 o 12900.840 12931.735 7.36 2.03633 0.80
8 0 0 o 34582.918 31042.633 0.00 2.12964 0.26
8 1 1 o 525.860 501.817 119.26 2.09713 0.02
7 4 1 o 9368.611 8904.718 152.75 2.09713 0.62
8 2 2 o 28684.104 29518.699 -130.74 2.00785 0.95
7 4 3 o 3778.045 3413.245 178.42 1.98053 0.20
8 2 0 o 83.541 83.088 0.00 2.06606 0.00
6 6 2 o 17875.895 17242.314 166.03 1.95430 0.43
8 3 1 o 5438.338 4900.257 172.91 1.98053 0.30
6 6 0 o 713.273 756.381 0.00 2.00785 0.02
7 5 2 o 1097.365 1618.395 62.73 1.92908 0.06
6 5 5 o 26911.975 26356.275 2.53 1.83716 0.71
8 3 3 o 5765.729 5870.667 133.84 1.88144 0.16
7 5 0 o 5616.481 5041.516 -180.00 1.98053 0.16
6 6 4 o 30659.012 29369.566 172.41 1.81617 0.81
8 4 2 o 19446.078 19300.613 -52.80 1.85891 1.09
7 5 4 o 5721.820 5656.023 176.56 1.79587 0.26
8 4 0 o 42220.94 43603.29 0.00 1.90481 1.07
9 1 0 o 11835.160 11978.215 180.00 1.88144 0.31
7 6 1 o 2167.472 2129.180 -6.85 1.83716 0.09
9 2 1 o 7118.958 6976.642 17.18 1.83716 0.35
8 4 4 o 34232.625 34022.441 -20.84 1.73885 0.74
7 6 3 o 5576.833 5354.246 -33.90 1.75725 0.25
8 5 1 o 13660.332 13466.961 -168.68 1.79587 0.67
9 3 2 o 4669.896 4479.839 37.44 1.75725 0.22
8 5 3 o 3200.388 3197.926 142.21 1.72101 0.14
9 3 0 o 3742.940 3702.877 180.00 1.79587 0.08
6 6 6 o 124987.47 125603.26 -178.73 1.63940 0.87
9 4 1 o 3095.757 3093.676 119.14 1.72101 0.14
7 6 5 o 6967.683 6409.021 -9.88 1.62443 0.28
7 7 2 o 1473.938 1636.929 -3.82 1.68693 0.03
9 4 3 o 7553.238 7182.319 161.16 1.65479 0.31
7 7 0 o 8875.085 8873.494 180.00 1.72101 0.10
8 6 2 o 783.381 769.405 119.50 1.67063 0.03
10 1 1 o 154.247 161.560 12.22 1.68693 0.00
8 6 0 o 14802.664 15782.095 0.00 1.70371 0.33
8 5 5 o 868.716 911.993 104.89 1.59568 0.02
10 0 0 o 58637.51 62536.96 0.00 1.70371 0.34
7 7 4 o 2232.795 2341.731 98.47 1.59568 0.04
10 2 2 o 30294.619 30429.627 -158.98 1.63940 0.57
10 2 0 o 15.088 14.965 180.00 1.67063 0.00
8 6 4 o 1208.151 1390.505 -12.11 1.58186 0.04
9 5 2 o 5775.679 5318.703 -9.12 1.62443 0.22
9 5 0 o 1468.544 1411.204 180.00 1.65479 0.02
10 3 1 o 3471.031 3208.392 -2.02 1.62443 0.13
10 3 3 o 9431.034 10543.871 13.45 1.56840 0.17
9 5 4 o 4156.466 4372.716 -170.21 1.54247 0.14
8 7 1 o 8173.973 8545.055 -160.72 1.59568 0.32
8 7 3 o 6506.312 6851.676 -151.81 1.54247 0.23
10 4 2 o 9808.751 10508.573 -156.01 1.55527 0.37
9 6 1 o 4752.930 5305.742 35.51 1.56840 0.17
7 7 6 o 9554.587 9510.868 8.85 1.47179 0.16
9 6 3 o 2289.340 2439.103 43.23 1.51779 0.08
10 4 0 o 551.729 760.478 180.00 1.58186 0.02
8 6 6 o 7326.725 7165.291 -177.85 1.46092 0.12
10 4 4 o 11395.412 11964.749 -15.34 1.48289 0.20
8 7 5 o 4614.415 3646.616 -158.12 1.45030 0.14
11 1 0 o 9873.470 10457.861 -180.00 1.54247 0.18
11 2 1 o 2650.717 2818.023 15.84 1.51779 0.08
10 5 1 o 4856.121 5185.279 -11.46 1.51779 0.16
10 5 3 o 2584.468 2574.078 17.40 1.47179 0.08
8 8 2 o 20415.635 21397.090 56.05 1.48289 0.38
9 6 5 o 1464.583 845.499 21.55 1.42973 0.04
8 8 0 o 51152.10 50790.11 0.00 1.50589 0.43
9 7 2 o 6743.646 6700.845 -35.24 1.47179 0.22
11 3 2 o 1629.946 1622.315 6.45 1.47179 0.05
9 7 0 o 4920.759 3953.500 180.00 1.49426 0.08
8 8 4 o 20457.320 20464.561 15.73 1.41976 0.29
11 3 0 o 4263.379 3444.655 180.00 1.49426 0.07
9 7 4 o 1054.301 1132.689 165.23 1.41000 0.03
10 6 2 o 35936.88 35551.39 -178.06 1.43990 1.09
10 5 5 o 572.234 615.746 49.95 1.39108 0.01
11 4 1 o 88.383 82.809 173.58 1.45030 0.00
10 6 0 o 10533.271 10281.849 180.00 1.46092 0.18
11 4 3 o 4862.479 5278.896 -167.68 1.41000 0.14
10 6 4 o 338.636 732.584 -88.12 1.38190 0.01
8 7 7 o 2928.498 2846.790 173.13 1.33856 0.04
9 8 1 o 3061.554 3311.653 -170.57 1.41000 0.09
12 1 1 o 3587.938 3906.201 -165.56 1.41000 0.05
8 8 6 o 1750.016 1440.548 8.54 1.33038 0.02
11 5 2 o 5524.843 6005.672 9.06 1.39108 0.16
12 0 0 o 53527.60 54170.86 0.00 1.41976 0.21
9 8 3 o 2333.807 2933.104 -161.69 1.37289 0.06
9 7 6 o 2301.267 2186.626 -16.36 1.32234 0.06
12 2 2 o 578.516 883.023 -177.18 1.38190 0.01
11 5 0 o 1292.926 1387.692 180.00 1.41000 0.02
10 7 1 o 2915.547 3159.663 -20.30 1.39108 0.08
12 2 0 o 7314.011 7165.455 0.00 1.40044 0.11
11 5 4 o 3510.750 3407.456 172.79 1.33856 0.09
10 7 3 o 2264.704 2748.213 -32.61 1.35540 0.06
10 6 6 o 6451.822 4921.214 175.45 1.29907 0.07
12 3 1 o 1838.019 2278.963 175.67 1.37289 0.05
9 8 5 o 2738.225 2439.634 173.59 1.30669 0.07
12 3 3 o 2246.040 2176.072 123.51 1.33856 0.03
11 6 1 o 4540.139 5558.583 6.93 1.35540 0.13
11 6 3 o 2728.936 2583.554 18.25 1.32234 0.07
10 7 5 o 2825.594 2723.855 -9.77 1.29158 0.07
12 4 2 o 818.817 683.980 11.09 1.33038 0.02
9 9 2 o 4393.574 4118.620 -51.22 1.32234 0.06
8 8 8 o 19847.646 19607.270 -32.01 1.22955 0.08
10 8 2 o 6500.612 6773.858 127.92 1.31444 0.19
12 4 0 o 9375.972 9778.247 0.00 1.34690 0.10
9 9 4 o 425.864 373.142 -146.97 1.27699 0.00
12 4 4 o 27689.695 28397.057 0.34 1.28422 0.34
9 9 0 o 5394.147 5227.437 180.00 1.33856 0.04
11 6 5 o 312.104 282.664 -4.74 1.26288 0.00
10 8 4 o 1133.613 677.526 45.63 1.26987 0.03
10 8 0 o 4968.889 3960.975 0.00 1.33038 0.07
12 5 1 o 1551.811 1393.366 159.93 1.30669 0.04
11 7 2 o 2838.535 2720.134 10.39 1.29158 0.07
12 5 3 o 4162.872 3569.059 165.21 1.27699 0.11
9 8 7 o 1610.270 1906.713 149.84 1.22320 0.04
10 7 7 o 2385.232 2643.693 18.28 1.21078 0.03
11 7 4 o 4751.292 5184.736 160.72 1.24922 0.12
13 2 1 o 779.575 755.344 13.67 1.29158 0.02
13 1 0 o 2927.731 2615.334 180.00 1.30669 0.04
11 7 0 o 2266.318 2027.443 -180.00 1.30669 0.03
12 5 5 o 4984.228 5971.698 175.60 1.22320 0.06
9 9 6 o 4604.187 5125.634 -40.80 1.21078 0.06
13 3 2 o 2997.809 2539.339 -27.38 1.26288 0.07
10 8 6 o 3215.139 2936.378 166.35 1.20471 0.07
12 6 2 o 7482.020 8837.752 -157.05 1.25600 0.20
10 9 1 o 1377.964 1184.143 -21.95 1.26288 0.03
10 9 3 o 2405.184 2278.080 -31.94 1.23600 0.06
13 3 0 o 906.150 800.019 -180.00 1.27699 0.01
12 6 0 o 1011.472 438.112 -180.00 1.26987 0.02
12 6 4 o 7549.737 7921.002 -15.36 1.21694 0.19
11 8 1 o 829.191 889.027 177.80 1.24922 0.02
13 4 1 o 3668.755 4001.451 -165.92 1.24922 0.09
11 7 6 o 147.393 136.830 -75.91 1.18703 0.00
13 4 3 o 2697.465 3208.105 -151.48 1.22320 0.06
11 8 3 o 289.490 335.304 133.47 1.22320 0.01
10 9 5 o 2484.217 2316.126 -1.56 1.18703 0.06
12 7 3 o 1865.376 1429.114 -162.31 1.19873 0.04
13 5 2 o 5213.688 5790.893 0.95 1.21078 0.12
11 8 5 o 618.673 381.832 -157.76 1.17568 0.01
12 6 6 o 2154.327 2718.360 15.97 1.15923 0.03
12 7 1 o 78.017 92.018 116.22 1.22320 0.00
9 9 8 o 1249.845 1340.938 159.24 1.13329 0.01
10 8 8 o 4106.225 2977.707 -53.34 1.12831 0.05
13 5 0 o -3.783 0.427 0.00 1.22320 0.00
13 5 4 o 1804.570 1075.888 -175.26 1.17568 0.04
14 1 1 o 1961.955 2173.009 -31.89 1.21078 0.02
10 10 2 o 10666.039 11545.723 137.28 1.19284 0.12
14 2 2 o 12522.667 13570.632 152.60 1.19284 0.13
14 0 0 o 355.451 369.129 0.00 1.21694 0.00
11 9 2 o 1348.001 1253.482 -46.77 1.18703 0.03
12 7 5 o 2081.238 2093.408 -179.19 1.15390 0.04
10 10 4 o 5542.768 6596.815 148.66 1.15923 0.07
10 9 7 o 2338.291 1681.943 36.77 1.12340 0.05
11 9 4 o 791.159 794.019 -170.16 1.15390 0.01
14 2 0 o 1408.120 1306.620 -180.00 1.20471 0.01
10 10 0 o 227.680 185.484 0.00 1.20471 0.00
14 3 3 o 1686.006 1304.365 -36.27 1.16464 0.02
13 6 3 o 1442.162 1133.763 21.80 1.16464 0.03
13 6 1 o 1315.110 1232.720 -14.59 1.18703 0.03
14 3 1 o 2591.895 2425.470 -22.21 1.18703 0.06
11 9 0 o 2895.542 2193.684 -180.00 1.19873 0.03
11 8 7 o 1013.949 962.940 -145.58 1.11375 0.02
12 8 2 o 1587.509 1237.610 -84.17 1.17012 0.04
12 8 4 o 7050.114 8577.933 -10.59 1.13834 0.13
13 6 5 o 70.229 62.290 1.79 1.12340 0.00
14 4 2 o 3167.199 3794.601 120.26 1.15923 0.08
12 8 0 o 6898.241 4841.995 0.00 1.18131 0.07
14 4 4 o 4428.263 3181.318 60.59 1.12831 0.05
10 10 6 o 12245.683 14075.089 179.54 1.10902 0.12
12 7 7 o 1832.621 1731.769 167.46 1.09519 0.02
11 9 6 o 1677.408 1247.371 2.10 1.10435 0.03
14 4 0 o 2695.336 2206.157 0.00 1.17012 0.03
13 7 2 o 2857.936 3380.922 43.97 1.14346 0.06
12 8 6 o 2112.642 2062.096 30.95 1.09069 0.05
13 7 4 o 1113.057 1057.211 157.17 1.11375 0.02
13 7 0 o 1121.265 1128.481 180.00 1.15390 0.01
14 5 3 o 709.606 532.168 -17.58 1.12340 0.01
11 10 3 o 1532.604 1111.214 -27.76 1.12340 0.03
11 10 1 o 291.583 331.275 -39.01 1.14346 0.00
14 5 1 o 590.888 679.378 20.13 1.14346 0.01
12 9 3 o 989.380 941.126 161.52 1.11375 0.02
10 9 9 o 1359.951 925.803 52.91 1.05256 0.01
12 9 1 o 777.584 835.588 134.79 1.13329 0.02
11 10 5 o 971.376 1017.635 -18.06 1.08625 0.02
14 5 5 o 1944.847 2039.800 -8.05 1.08625 0.02
15 1 0 o 223.227 234.857 180.00 1.13329 0.00
14 6 2 o 9792.540 11224.569 -164.32 1.10902 0.19
15 2 1 o 1423.360 1054.062 -3.65 1.12340 0.03
13 7 6 o 365.343 517.073 -37.83 1.06901 0.01
10 10 8 o 2248.965 2345.511 -90.99 1.04856 0.03
13 8 3 o 458.989 431.797 130.70 1.09519 0.01
12 9 5 o 833.014 613.798 -153.39 1.07752 0.02
15 3 2 o 838.337 632.519 -24.82 1.10435 0.02
13 8 1 o 485.022 464.729 -158.97 1.11375 0.01
14 6 4 o 900.648 671.221 -168.63 1.08186 0.02
14 6 0 o 2480.158 1847.656 -180.00 1.11854 0.03
13 8 5 o 488.025 610.161 168.83 1.06069 0.01
15 3 0 o 3060.575 2911.281 180.00 1.11375 0.03
15 4 3 o 590.475 418.411 -123.92 1.07752 0.01
11 11 2 o 756.174 787.099 -18.04 1.08625 0.01
15 4 1 o 1273.757 1203.653 -153.48 1.09519 0.03
12 10 2 o 226.581 169.297 128.86 1.08186 0.00
11 11 4 o 20.211 23.401 -139.28 1.06069 0.00
14 7 3 o 234.270 316.578 10.44 1.06901 0.00
11 11 0 o 225.808 214.929 -180.00 1.09519 0.00
14 7 1 o 2591.878 2730.998 18.04 1.08625 0.05
12 10 4 o 620.938 541.858 42.08 1.05660 0.01
12 10 0 o 1941.297 1894.414 0.00 1.09069 0.02
13 9 2 o 336.214 473.073 26.90 1.06901 0.01
15 5 2 o 348.081 481.642 -18.57 1.06901 0.01
13 9 0 o 1100.901 813.264 -180.00 1.07752 0.01
15 5 0 o 1389.432 1013.701 -180.00 1.07752 0.01
14 8 2 o 3660.811 3806.151 -131.98 1.04856 0.08
16 1 1 o 1894.835 2427.462 175.87 1.06069 0.02
16 2 2 o 216.870 223.215 153.93 1.04856 0.00
16 0 0 o 2487.750 2810.075 0.00 1.06482 0.00
15 6 1 o 817.543 590.858 0.89 1.05256 0.01
16 2 0 o 1544.072 1356.728 0.00 1.05660 0.01
14 8 0 o 2.928 0.452 0.00 1.05660 0.00
_reflns_number_total             257
_reflns_limit_h_min              1
_reflns_limit_h_max              16
_reflns_limit_k_min              0
_reflns_limit_k_max              11
_reflns_limit_l_min              0
_reflns_limit_l_max              9
_reflns_d_resolution_high        1.049
_reflns_d_resolution_low         12.047
#--eof--eof--eof--eof--eof--eof--eof--eof--eof--eof--eof--eof--eof--eof--eof--#
_exptl_crystal_colour            White
_exptl_crystal_recrystallization_method 'Solvothermal synthesis'
_exptl_crystal_preparation       Adsorption
